Lab-1.sdf
  ChemDraw05232018482D

 33 36  0  0  0  0  0  0  0  0999 V2000
   -2.4834   -1.9923    0.0000 C   0  0  0  0  0  0  0  0  0  0  0  0
   -3.2680   -1.7373    0.0000 C   0  0  0  0  0  0  0  0  0  0  0  0
   -2.7160   -1.1242    0.0000 C   0  0  0  0  0  0  0  0  0  0  0  0
   -2.9709   -0.3396    0.0000 C   0  0  0  0  0  0  0  0  0  0  0  0
   -3.7778   -0.1681    0.0000 C   0  0  0  0  0  0  0  0  0  0  0  0
   -4.3298   -0.7812    0.0000 C   0  0  0  0  0  0  0  0  0  0  0  0
   -5.1368   -0.6096    0.0000 C   0  0  0  0  0  0  0  0  0  0  0  0
   -5.3917    0.1749    0.0000 C   0  0  0  0  0  0  0  0  0  0  0  0
   -4.8397    0.7880    0.0000 C   0  0  0  0  0  0  0  0  0  0  0  0
   -5.0946    1.5726    0.0000 C   0  0  0  0  0  0  0  0  0  0  0  0
   -4.5426    2.1857    0.0000 C   0  0  0  0  0  0  0  0  0  0  0  0
   -4.7975    2.9703    0.0000 O   0  0  0  0  0  0  0  0  0  0  0  0
   -3.7357    2.0142    0.0000 C   0  0  0  0  0  0  0  0  0  0  0  0
   -3.4808    1.2295    0.0000 C   0  0  0  0  0  0  0  0  0  0  0  0
   -4.0327    0.6164    0.0000 C   0  0  0  0  0  0  0  0  0  0  0  0
   -3.2258    0.4449    0.0000 C   0  0  0  0  0  0  0  0  0  0  0  0
   -4.0749   -1.5658    0.0000 C   0  0  0  0  0  0  0  0  0  0  0  0
   -4.4874   -2.2803    0.0000 C   0  0  0  0  0  0  0  0  0  0  0  0
   -3.9353   -2.8934    0.0000 C   0  0  0  0  0  0  0  0  0  0  0  0
   -3.1817   -2.5578    0.0000 C   0  0  0  0  0  0  0  0  0  0  0  0
   -2.4673   -2.9703    0.0000 O   0  0  0  0  0  0  0  0  0  0  0  0
   -1.7528   -2.5578    0.0000 C   0  0  0  0  0  0  0  0  0  0  0  0
   -1.7528   -1.7328    0.0000 O   0  0  0  0  0  0  0  0  0  0  0  0
   -1.0383   -2.9703    0.0000 C   0  0  0  0  0  0  0  0  0  0  0  0
   -0.3239   -2.5578    0.0000 C   0  0  0  0  0  0  0  0  0  0  0  0
    0.3905   -2.9703    0.0000 C   0  0  0  0  0  0  0  0  0  0  0  0
    1.1050   -2.5578    0.0000 C   0  0  0  0  0  0  0  0  0  0  0  0
    1.8194   -2.9703    0.0000 C   0  0  0  0  0  0  0  0  0  0  0  0
    2.5339   -2.5578    0.0000 C   0  0  0  0  0  0  0  0  0  0  0  0
    3.2484   -2.9703    0.0000 C   0  0  0  0  0  0  0  0  0  0  0  0
    3.9628   -2.5578    0.0000 C   0  0  0  0  0  0  0  0  0  0  0  0
    4.6772   -2.9703    0.0000 C   0  0  0  0  0  0  0  0  0  0  0  0
    5.3917   -2.5578    0.0000 C   0  0  0  0  0  0  0  0  0  0  0  0
  1  2  1  0      
  2  3  1  0      
  3  4  1  0      
  4  5  1  0      
  5  6  1  0      
  6  7  1  0      
  7  8  1  0      
  8  9  1  0      
  9 10  2  0      
 10 11  1  0      
 11 12  2  0      
 11 13  1  0      
 13 14  2  0      
 14 15  1  0      
  5 15  1  0      
  9 15  1  0      
 15 16  1  0      
  6 17  1  0      
  2 17  1  0      
 17 18  1  0      
 18 19  1  0      
 19 20  1  0      
  2 20  1  0      
 20 21  1  0      
 21 22  1  0      
 22 23  2  0      
 22 24  1  0      
 24 25  1  0      
 25 26  1  0      
 26 27  1  0      
 27 28  1  0      
 28 29  1  0      
 29 30  1  0      
 30 31  1  0      
 31 32  1  0      
 32 33  2  0      
M  END
>  <Bioactivity>
Boldenone undecylenate(Equipoise) is a synthetic steroid which has a similar effect as the natural steroid testosterone; it is frequently used in veterinary medicine, though it is also used in humans.

>  <CAS>
13103-34-9

>  <Col>
2

>  <Formula>
C30H44O3

>  <ID>
T3137

>  <Index>
1

>  <MOLENAME>
Boldenone Undecylenate

>  <MolWt>
452.67

>  <Pathways>
Endocrinology/ Hormones

>  <Plate>
PLATE 001

>  <QR code>
1152410952

>  <Receptor>
Androgens receptor

>  <Reference>
1. Oda SS, El-Ashmawy IM. Int J Exp Pathol. 2012 Jun;93(3):172-8.

>  <Row>
A

>  <SMILES>
CC12CCC3C(CCC4=CC(=O)C=CC34C)C1CCC2OC(=O)CCCCCCCCC=C

>  <Target>
Androgens Receptor agonist

>  <Weight>
10.2mg

$$$$
Lab-1.sdf
  ChemDraw05232018482D

 20 21  0  0  0  0  0  0  0  0999 V2000
   -1.4057    1.9475    0.0000 C   0  0  0  0  0  0  0  0  0  0  0  0
   -1.9577    1.3345    0.0000 N   0  0  0  0  0  0  0  0  0  0  0  0
   -2.7782    1.4207    0.0000 C   0  0  0  0  0  0  0  0  0  0  0  0
   -3.1137    0.6670    0.0000 N   0  0  0  0  0  0  0  0  0  0  0  0
   -2.5006    0.1150    0.0000 C   0  0  0  0  0  0  0  0  0  0  0  0
   -1.7862    0.5275    0.0000 C   0  0  0  0  0  0  0  0  0  0  0  0
   -1.0717    0.1150    0.0000 C   0  0  0  0  0  0  0  0  0  0  0  0
   -0.3572    0.5275    0.0000 O   0  0  0  0  0  0  0  0  0  0  0  0
   -1.0717   -0.7100    0.0000 N   0  0  0  0  0  0  0  0  0  0  0  0
   -0.3572   -1.1225    0.0000 C   0  0  0  0  0  0  0  0  0  0  0  0
    0.3572   -0.7100    0.0000 C   0  0  0  0  0  0  0  0  0  0  0  0
    1.0717   -1.1225    0.0000 C   0  0  0  0  0  0  0  0  0  0  0  0
    1.7862   -0.7100    0.0000 C   0  0  0  0  0  0  0  0  0  0  0  0
    2.5007   -1.1225    0.0000 C   0  0  0  0  0  0  0  0  0  0  0  0
    3.2151   -0.7100    0.0000 C   0  0  0  0  0  0  0  0  0  0  0  0
    2.5007   -1.9475    0.0000 O   0  0  0  0  0  0  0  0  0  0  0  0
   -1.7862   -1.1225    0.0000 C   0  0  0  0  0  0  0  0  0  0  0  0
   -1.7862   -1.9475    0.0000 O   0  0  0  0  0  0  0  0  0  0  0  0
   -2.5006   -0.7100    0.0000 N   0  0  0  0  0  0  0  0  0  0  0  0
   -3.2151   -1.1225    0.0000 C   0  0  0  0  0  0  0  0  0  0  0  0
  1  2  1  0      
  2  3  1  0      
  3  4  2  0      
  4  5  1  0      
  5  6  2  0      
  2  6  1  0      
  6  7  1  0      
  7  8  2  0      
  7  9  1  0      
  9 10  1  0      
 10 11  1  0      
 11 12  1  0      
 12 13  1  0      
 13 14  1  0      
 14 15  1  0      
 14 16  2  0      
  9 17  1  0      
 17 18  2  0      
 17 19  1  0      
  5 19  1  0      
 19 20  1  0      
M  END
>  <Bioactivity>
A METHYLXANTHINE derivative that inhibits phosphodiesterase and affects blood rheology. It improves blood flow by increasing erythrocyte and leukocyte flexibility. It also inhibits platelet aggregatio
n. Pentoxifylline modulates immunologic activity by stimulating cytokine production. 

>  <CAS>
6493-05-6

>  <Col>
3

>  <Formula>
C13H18N4O3

>  <ID>
T0070

>  <Index>
2

>  <MOLENAME>
Pentoxifylline

>  <MolWt>
278.31

>  <Pathways>
Metabolism; Immunology/Inflammation

>  <Plate>
PLATE 001

>  <QR code>
1152410951

>  <Receptor>
PDE; Adenosine receptor

>  <Reference>
1. Daly JW, et al. Prog Clin Biol Res. 1987;230:41-63. 

>  <Row>
A

>  <SMILES>
CN1C=NC2=C1C(=O)N(CCCCC(C)=O)C(=O)N2C

>  <Target>
PDE inhibitor; ROS inhibitor

>  <Weight>
10.1mg

$$$$
Lab-1.sdf
  ChemDraw05232018482D

 50 54  0  0  0  0  0  0  0  0999 V2000
   -4.3937   -0.7195    0.0000 O   0  0  0  0  0  0  0  0  0  0  0  0
   -4.3937    0.1054    0.0000 Cl  0  0  0  0  0  0  0  0  0  0  0  0
   -4.3937    0.9304    0.0000 O   0  0  0  0  0  0  0  0  0  0  0  0
   -3.5687    0.1054    0.0000 O   0  0  0  0  0  0  0  0  0  0  0  0
   -5.2187    0.1054    0.0000 O   0  0  0  0  0  0  0  0  0  0  0  0
   -1.2116   -4.7437    0.0000 C   0  0  0  0  0  0  0  0  0  0  0  0
   -1.2116   -3.9187    0.0000 O   0  0  0  0  0  0  0  0  0  0  0  0
   -0.4971   -3.5062    0.0000 C   0  0  0  0  0  0  0  0  0  0  0  0
   -0.4971   -2.6812    0.0000 C   0  0  0  0  0  0  0  0  0  0  0  0
   -1.2116   -2.2687    0.0000 O   0  0  0  0  0  0  0  0  0  0  0  0
   -1.2116   -1.4437    0.0000 C   0  0  0  0  0  0  0  0  0  0  0  0
    0.2174   -2.2687    0.0000 C   0  0  0  0  0  0  0  0  0  0  0  0
    0.9319   -2.6812    0.0000 C   0  0  0  0  0  0  0  0  0  0  0  0
    1.6463   -2.2687    0.0000 C   0  0  0  0  0  0  0  0  0  0  0  0
    1.6463   -1.4437    0.0000 C   0  0  0  0  0  0  0  0  0  0  0  0
    2.3608   -1.0312    0.0000 C   0  0  0  0  0  0  0  0  0  0  0  0
    2.3608   -0.2062    0.0000 C   0  0  0  0  0  0  0  0  0  0  0  0
    3.0753    0.2063    0.0000 C   0  0  0  0  0  0  0  0  0  0  0  0
    3.0753    1.0312    0.0000 O   0  0  0  0  0  0  0  0  0  0  0  0
    2.3608    1.4437    0.0000 C   0  0  0  0  0  0  0  0  0  0  0  0
    1.6463    1.0312    0.0000 C   0  0  0  0  0  0  0  0  0  0  0  0
    1.6463    0.2063    0.0000 O   0  0  0  0  0  0  0  0  0  0  0  0
    0.9319   -0.2062    0.0000 C   0  0  0  0  0  0  0  0  0  0  0  0
    0.9319    1.4437    0.0000 C   0  0  0  0  0  0  0  0  0  0  0  0
    0.9319    2.2687    0.0000 C   0  0  0  0  0  0  0  0  0  0  0  0
    0.2174    2.6812    0.0000 C   0  0  0  0  0  0  0  0  0  0  0  0
    0.2174    3.5062    0.0000 C   0  0  0  0  0  0  0  0  0  0  0  0
    0.9319    3.9187    0.0000 N   0  0  0  0  0  0  0  0  0  0  0  0
    0.9319    4.7437    0.0000 C   0  0  0  0  0  0  0  0  0  0  0  0
    1.6463    3.5062    0.0000 C   0  0  0  0  0  0  0  0  0  0  0  0
    2.3608    3.9187    0.0000 C   0  0  0  0  0  0  0  0  0  0  0  0
    3.0753    3.5062    0.0000 C   0  0  0  0  0  0  0  0  0  0  0  0
    3.7897    3.9187    0.0000 C   0  0  0  0  0  0  0  0  0  0  0  0
    4.5042    3.5062    0.0000 C   0  0  0  0  0  0  0  0  0  0  0  0
    4.5042    2.6812    0.0000 C   0  0  0  0  0  0  0  0  0  0  0  0
    5.2187    2.2687    0.0000 O   0  0  0  0  0  0  0  0  0  0  0  0
    3.7897    2.2687    0.0000 C   0  0  0  0  0  0  0  0  0  0  0  0
    3.0753    2.6812    0.0000 C   0  0  0  0  0  0  0  0  0  0  0  0
    1.6463    2.6812    0.0000 C   0  0  0  0  0  0  0  0  0  0  0  0
    2.3608    2.2687    0.0000 C   0  0  0  0  0  0  0  0  0  0  0  0
    3.7897   -0.2062    0.0000 C   0  0  0  0  0  0  0  0  0  0  0  0
    4.5042    0.2063    0.0000 O   0  0  0  0  0  0  0  0  0  0  0  0
    3.7897   -1.0312    0.0000 C   0  0  0  0  0  0  0  0  0  0  0  0
    3.0753   -1.4437    0.0000 C   0  0  0  0  0  0  0  0  0  0  0  0
    2.3608   -2.6812    0.0000 N   0  0  0  0  0  0  0  0  0  0  0  0
    3.0753   -2.2687    0.0000 C   0  0  0  0  0  0  0  0  0  0  0  0
    2.3608   -3.5062    0.0000 C   0  0  0  0  0  0  0  0  0  0  0  0
    1.6463   -3.9187    0.0000 C   0  0  0  0  0  0  0  0  0  0  0  0
    0.9319   -3.5062    0.0000 C   0  0  0  0  0  0  0  0  0  0  0  0
    0.2174   -3.9187    0.0000 C   0  0  0  0  0  0  0  0  0  0  0  0
  1  2  1  0      
  2  3  2  0      
  2  4  2  0      
  2  5  2  0      
  6  7  1  0      
  7  8  1  0      
  8  9  2  0      
  9 10  1  0      
 10 11  1  0      
  9 12  1  0      
 12 13  2  0      
 13 14  1  0      
 14 15  1  0      
 15 16  1  0      
 16 17  2  0      
 17 18  1  0      
 18 19  1  0      
 19 20  1  0      
 20 21  2  0      
 21 22  1  0      
 22 23  1  0      
 21 24  1  0      
 24 25  2  0      
 25 26  1  0      
 26 27  1  0      
 27 28  1  0      
 28 29  1  0      
 28 30  1  0      
 30 31  1  0      
 31 32  1  0      
 32 33  2  0      
 33 34  1  0      
 34 35  2  0      
 35 36  1  0      
 35 37  1  0      
 37 38  2  0      
 32 38  1  0      
 30 39  1  0      
 25 39  1  0      
 39 40  2  0      
 20 40  1  0      
 18 41  2  0      
 41 42  1  0      
 41 43  1  0      
 43 44  2  0      
 16 44  1  0      
 14 45  1  0      
 45 46  1  0      
 45 47  1  0      
 47 48  1  0      
 48 49  1  0      
 13 49  1  0      
 49 50  2  0      
  8 50  1  0      
M  END
>  <Bioactivity>
Liensinine is the active constituent of plumula nelambinis with anti-hypertension.

>  <CAS>
2385-63-9

>  <Col>
4

>  <Formula>
C37H43ClN2O10

>  <ID>
T3055

>  <Index>
3

>  <MOLENAME>
Liensinine Perchlorate

>  <MolWt>
711.2

>  <Pathways>
Others

>  <Plate>
PLATE 001

>  <QR code>
1152410950

>  <Receptor>
Others

>  <Reference>
1. Zhou J, et al. Autophagy. 2015;11(8):1259-79. 

>  <Row>
A

>  <SMILES>
O[Cl](=O)(=O)=O.COC1=C(OC)C=C2C(CC3=CC(OC4=C(OC)C=C5CCN(C)C(CC6=CC=C(O)C=C6)C5=C4)=C(O)C=C3)N(C)CCC2=C1

>  <Target>
Others

>  <Weight>
10.1mg

$$$$
Lab-1.sdf
  ChemDraw05232018482D

 11 11  0  0  0  0  0  0  0  0999 V2000
   -0.3572    2.2687    0.0000 C   0  0  0  0  0  0  0  0  0  0  0  0
   -0.3572    1.4438    0.0000 C   0  0  0  0  0  0  0  0  0  0  0  0
   -1.0717    1.0312    0.0000 O   0  0  0  0  0  0  0  0  0  0  0  0
    0.3573    1.0312    0.0000 N   0  0  0  0  0  0  0  0  0  0  0  0
    0.3573    0.2062    0.0000 C   0  0  0  0  0  0  0  0  0  0  0  0
    1.0717   -0.2062    0.0000 C   0  0  0  0  0  0  0  0  0  0  0  0
    1.0717   -1.0312    0.0000 C   0  0  0  0  0  0  0  0  0  0  0  0
    0.3573   -1.4438    0.0000 C   0  0  0  0  0  0  0  0  0  0  0  0
    0.3573   -2.2687    0.0000 O   0  0  0  0  0  0  0  0  0  0  0  0
   -0.3572   -1.0312    0.0000 C   0  0  0  0  0  0  0  0  0  0  0  0
   -0.3572   -0.2062    0.0000 C   0  0  0  0  0  0  0  0  0  0  0  0
  1  2  1  0      
  2  3  2  0      
  2  4  1  0      
  4  5  1  0      
  5  6  2  0      
  6  7  1  0      
  7  8  2  0      
  8  9  1  0      
  8 10  1  0      
 10 11  2  0      
  5 11  1  0      
M  END
>  <Bioactivity>
Acetaminophen (paracetamol) is a selective cyclooxygenase-2 inhibitor. 

>  <CAS>
103-90-2

>  <Col>
5

>  <Formula>
C8H9NO2

>  <ID>
T0065

>  <Index>
4

>  <MOLENAME>
Acetaminophen

>  <MolWt>
151.16

>  <Pathways>
Neuroscience

>  <Plate>
PLATE 001

>  <QR code>
1152410949

>  <Receptor>
COX1; COX2

>  <Reference>
1. Botting R, Ayoub SS. Prostaglandins Leukot Essent Fatty Acids. 2005 Feb;72(2):85-7. 

>  <Row>
A

>  <SMILES>
CC(=O)NC1=CC=C(O)C=C1

>  <Target>
COX inhibitor

>  <Weight>
10.4mg

$$$$
Lab-1.sdf
  ChemDraw05232018482D

 34 37  0  0  0  0  0  0  0  0999 V2000
   -4.7942    1.0140    0.0000 C   0  0  0  0  0  0  0  0  0  0  0  0
   -4.0798    0.6015    0.0000 C   0  0  0  0  0  0  0  0  0  0  0  0
   -4.0798   -0.2235    0.0000 C   0  0  0  0  0  0  0  0  0  0  0  0
   -3.3654    1.0140    0.0000 C   0  0  0  0  0  0  0  0  0  0  0  0
   -3.3654    1.8390    0.0000 C   0  0  0  0  0  0  0  0  0  0  0  0
   -2.6508    0.6015    0.0000 C   0  0  0  0  0  0  0  0  0  0  0  0
   -2.6508   -0.2235    0.0000 O   0  0  0  0  0  0  0  0  0  0  0  0
   -1.9365    1.0140    0.0000 C   0  0  0  0  0  0  0  0  0  0  0  0
   -1.9365    1.8390    0.0000 O   0  0  0  0  0  0  0  0  0  0  0  0
   -1.2220    0.6015    0.0000 C   0  0  0  0  0  0  0  0  0  0  0  0
   -1.2220   -0.2235    0.0000 C   0  0  0  0  0  0  0  0  0  0  0  0
   -0.5075    1.0140    0.0000 C   0  0  0  0  0  0  0  0  0  0  0  0
   -0.4213    1.8345    0.0000 C   0  0  0  0  0  0  0  0  0  0  0  0
    0.3857    2.0060    0.0000 C   0  0  0  0  0  0  0  0  0  0  0  0
    0.7982    1.2915    0.0000 C   0  0  0  0  0  0  0  0  0  0  0  0
    1.6052    1.1200    0.0000 C   0  0  0  0  0  0  0  0  0  0  0  0
    2.0597    1.8086    0.0000 C   0  0  0  0  0  0  0  0  0  0  0  0
    2.8813    1.8825    0.0000 O   0  0  0  0  0  0  0  0  0  0  0  0
    3.4515    1.2862    0.0000 C   0  0  0  0  0  0  0  0  0  0  0  0
    4.2361    1.5411    0.0000 O   0  0  0  0  0  0  0  0  0  0  0  0
    3.3407    0.4686    0.0000 C   0  0  0  0  0  0  0  0  0  0  0  0
    4.0613    0.0669    0.0000 C   0  0  0  0  0  0  0  0  0  0  0  0
    4.0736   -0.7579    0.0000 C   0  0  0  0  0  0  0  0  0  0  0  0
    4.7942   -1.1597    0.0000 O   0  0  0  0  0  0  0  0  0  0  0  0
    3.3654   -1.1811    0.0000 C   0  0  0  0  0  0  0  0  0  0  0  0
    3.3777   -2.0060    0.0000 O   0  0  0  0  0  0  0  0  0  0  0  0
    2.6448   -0.7793    0.0000 C   0  0  0  0  0  0  0  0  0  0  0  0
    2.6325    0.0455    0.0000 C   0  0  0  0  0  0  0  0  0  0  0  0
    1.9579   -0.4293    0.0000 C   0  0  0  0  0  0  0  0  0  0  0  0
    1.8601    0.3355    0.0000 C   0  0  0  0  0  0  0  0  0  0  0  0
    1.3081   -0.2776    0.0000 C   0  0  0  0  0  0  0  0  0  0  0  0
    0.5011   -0.1062    0.0000 C   0  0  0  0  0  0  0  0  0  0  0  0
    0.2462    0.6784    0.0000 C   0  0  0  0  0  0  0  0  0  0  0  0
   -0.3669    0.1264    0.0000 C   0  0  0  0  0  0  0  0  0  0  0  0
  1  2  1  0      
  2  3  1  0      
  2  4  1  0      
  4  5  1  0      
  4  6  1  0      
  6  7  1  0      
  6  8  1  0      
  8  9  1  0      
  8 10  1  0      
 10 11  1  0      
 10 12  1  0      
 12 13  1  0      
 13 14  1  0      
 14 15  1  0      
 15 16  1  0      
 16 17  1  0      
 17 18  1  0      
 18 19  1  0      
 19 20  2  0      
 19 21  1  0      
 21 22  1  0      
 22 23  1  0      
 23 24  1  0      
 23 25  1  0      
 25 26  1  0      
 25 27  1  0      
 27 28  1  0      
 21 28  1  0      
 28 29  1  0      
 28 30  1  0      
 16 30  1  0      
 30 31  1  0      
 31 32  1  0      
 32 33  1  0      
 12 33  1  0      
 15 33  1  0      
 33 34  1  0      
M  END
>  <Bioactivity>
Brassinolide is a plant hormone. The first isolated brassinosteroid, it was discovered when it was shown that pollen from rapeseed (Brassica napus) could promote stem elongation and cell division.

>  <CAS>
72962-43-7

>  <Col>
6

>  <Formula>
C28H48O6

>  <ID>
T3151

>  <Index>
5

>  <MOLENAME>
Brassinolide

>  <MolWt>
480.68

>  <Pathways>
Others

>  <Plate>
PLATE 001

>  <QR code>
1152410948

>  <Receptor>
Others

>  <Reference>
1. Jin H, et al. Phytochemistry. 2014 May;101:40-51.

>  <Row>
A

>  <SMILES>
CC(C)C(C)C(O)C(O)C(C)C1CCC2C3COC(=O)C4CC(O)C(O)CC4(C)C3CCC12C

>  <Target>
Others

>  <Weight>
9.8mg

$$$$
Lab-1.sdf
  ChemDraw05232018482D

 19 21  0  0  0  0  0  0  0  0999 V2000
    1.8890   -0.7912    0.0000 C   0  0  0  0  0  0  0  0  0  0  0  0
    1.0852   -0.6105    0.0000 C   0  0  0  0  0  0  0  0  0  0  0  0
    0.8520    0.2241    0.0000 C   0  0  0  0  0  0  0  0  0  0  0  0
    0.0149    0.3670    0.0000 C   0  0  0  0  0  0  0  0  0  0  0  0
   -0.5519   -0.2932    0.0000 C   0  0  0  0  0  0  0  0  0  0  0  0
    0.0337   -0.7753    0.0000 C   0  0  0  0  0  0  0  0  0  0  0  0
    0.5063   -1.2771    0.0000 C   0  0  0  0  0  0  0  0  0  0  0  0
   -0.2905   -1.6704    0.0000 C   0  0  0  0  0  0  0  0  0  0  0  0
   -0.9195   -2.2025    0.0000 C   0  0  0  0  0  0  0  0  0  0  0  0
    0.1612   -2.3595    0.0000 C   0  0  0  0  0  0  0  0  0  0  0  0
   -0.9460   -1.0634    0.0000 C   0  0  0  0  0  0  0  0  0  0  0  0
   -1.7748   -0.8751    0.0000 C   0  0  0  0  0  0  0  0  0  0  0  0
   -1.8890   -0.0500    0.0000 C   0  0  0  0  0  0  0  0  0  0  0  0
   -1.1470    0.3108    0.0000 C   0  0  0  0  0  0  0  0  0  0  0  0
   -1.4231    1.0870    0.0000 C   0  0  0  0  0  0  0  0  0  0  0  0
   -0.6277    0.9504    0.0000 O   0  0  0  0  0  0  0  0  0  0  0  0
   -0.9220    1.7199    0.0000 C   0  0  0  0  0  0  0  0  0  0  0  0
   -1.7355    1.8498    0.0000 C   0  0  0  0  0  0  0  0  0  0  0  0
   -0.4027    2.3595    0.0000 O   0  0  0  0  0  0  0  0  0  0  0  0
  1  2  1  0      
  2  3  1  0      
  3  4  1  0      
  4  5  1  0      
  5  6  1  0      
  6  7  1  0      
  2  7  1  0      
  7  8  1  0      
  8  9  1  0      
  8 10  1  0      
  8 11  1  0      
  5 11  1  0      
 11 12  1  0      
 12 13  1  0      
 13 14  1  0      
  5 14  1  0      
 14 15  1  0      
 14 16  1  0      
 16 17  1  0      
 17 18  1  0      
 17 19  2  0      
M  END
>  <Bioactivity>
The fungal transformation of cedryl acetate was investigated for the first time by using Cunninghamella elegans.

>  <CAS>
77-54-3

>  <Col>
7

>  <Formula>
C17H28O2

>  <ID>
T2956

>  <Index>
6

>  <MOLENAME>
Cedryl acetate

>  <MolWt>
264.41

>  <Pathways>
Others

>  <Plate>
PLATE 001

>  <QR code>
1152410947

>  <Receptor>
Others

>  <Reference>
1. Sultan S, et al. Eur J Med Chem. 2013 Apr;62:764-70.

>  <Row>
A

>  <SMILES>
CC1CCC23CC1C(C)(C)C2CCC3(C)OC(C)=O

>  <Target>
Others

>  <Weight>
10.3mg

$$$$
Lab-1.sdf
  ChemDraw05232018482D

 11 11  0  0  0  0  0  0  0  0999 V2000
   -0.7144    2.4750    0.0000 C   0  0  0  0  0  0  0  0  0  0  0  0
    0.0001    2.0625    0.0000 O   0  0  0  0  0  0  0  0  0  0  0  0
    0.0001    1.2375    0.0000 C   0  0  0  0  0  0  0  0  0  0  0  0
    0.7144    0.8250    0.0000 C   0  0  0  0  0  0  0  0  0  0  0  0
    0.7144    0.0000    0.0000 C   0  0  0  0  0  0  0  0  0  0  0  0
    0.0001   -0.4125    0.0000 C   0  0  0  0  0  0  0  0  0  0  0  0
    0.0001   -1.2375    0.0000 C   0  0  0  0  0  0  0  0  0  0  0  0
   -0.7144   -1.6500    0.0000 C   0  0  0  0  0  0  0  0  0  0  0  0
   -0.7144   -2.4750    0.0000 C   0  0  0  0  0  0  0  0  0  0  0  0
   -0.7144    0.0000    0.0000 C   0  0  0  0  0  0  0  0  0  0  0  0
   -0.7144    0.8250    0.0000 C   0  0  0  0  0  0  0  0  0  0  0  0
  1  2  1  0      
  2  3  1  0      
  3  4  2  0      
  4  5  1  0      
  5  6  2  0      
  6  7  1  0      
  7  8  2  0      
  8  9  1  4      
  6 10  1  0      
 10 11  2  0      
  3 11  1  0      
M  END
>  <Bioactivity>
Anethole is a type of aromatic compound that occurs widely in nature, widely used as a flavoring substance.

>  <CAS>
104-46-1

>  <Col>
8

>  <Formula>
C10H12O

>  <ID>
T0014

>  <Index>
7

>  <MOLENAME>
cis-Anethol

>  <MolWt>
148.2

>  <Pathways>
Others

>  <Plate>
PLATE 001

>  <QR code>
1152410946

>  <Receptor>
Others

>  <Reference>
1. Shimoni E, et al. J Biol Chem. 2002 Apr 5;277(14):11866-72.

>  <Row>
A

>  <SMILES>
COC1=CC=C(C=CC)C=C1

>  <Target>
Others

>  <Weight>
10.3mg

$$$$
Lab-1.sdf
  ChemDraw05232018482D

 11 11  0  0  0  0  0  0  0  0999 V2000
    1.4289   -1.1410    0.0000 C   0  0  0  0  0  0  0  0  0  0  0  0
    0.7144   -0.7285    0.0000 C   0  0  0  0  0  0  0  0  0  0  0  0
    0.0000   -1.1410    0.0000 C   0  0  0  0  0  0  0  0  0  0  0  0
   -0.7144   -0.7285    0.0000 C   0  0  0  0  0  0  0  0  0  0  0  0
   -1.4289   -1.1410    0.0000 O   0  0  0  0  0  0  0  0  0  0  0  0
   -0.7144    0.0965    0.0000 C   0  0  0  0  0  0  0  0  0  0  0  0
    0.0000    0.5090    0.0000 C   0  0  0  0  0  0  0  0  0  0  0  0
   -0.5302    1.1410    0.0000 C   0  0  0  0  0  0  0  0  0  0  0  0
    0.5303    1.1410    0.0000 C   0  0  0  0  0  0  0  0  0  0  0  0
    0.7144    0.0965    0.0000 C   0  0  0  0  0  0  0  0  0  0  0  0
    1.4289    0.5090    0.0000 O   0  0  0  0  0  0  0  0  0  0  0  0
  1  2  1  0      
  2  3  2  0      
  3  4  1  0      
  4  5  2  0      
  4  6  1  0      
  6  7  1  0      
  7  8  1  0      
  7  9  1  0      
  7 10  1  0      
  2 10  1  0      
 10 11  2  0      
M  END
>  <Bioactivity>
Ketoisophorone is the major component of saffron spice.?It is a cyclic olefin and was reported as a product of the thermal degradation of ¦Â-carotene in aqueous suspension

>  <CAS>
1125-21-9

>  <Col>
9

>  <Formula>
C9H12O2

>  <ID>
T2723

>  <Index>
8

>  <MOLENAME>
Ketoisophorone

>  <MolWt>
152.19

>  <Pathways>
Others

>  <Plate>
PLATE 001

>  <QR code>
1152410945

>  <Receptor>
Others

>  <Reference>
1. Hegazy ME, et al. Z Naturforsch C. 2008 May-Jun;63(5-6):403-8.

>  <Row>
A

>  <SMILES>
CC1=CC(=O)CC(C)(C)C1=O

>  <Target>
Others

>  <Weight>
10.6mg

$$$$
Lab-1.sdf
  ChemDraw05232018482D

 11 11  0  0  0  0  0  0  0  0999 V2000
   -0.3572    1.8562    0.0000 C   0  0  0  0  0  0  0  0  0  0  0  0
   -0.3572    1.0313    0.0000 O   0  0  0  0  0  0  0  0  0  0  0  0
    0.3573    0.6188    0.0000 C   0  0  0  0  0  0  0  0  0  0  0  0
    1.0717    1.0313    0.0000 O   0  0  0  0  0  0  0  0  0  0  0  0
    0.3573   -0.2062    0.0000 C   0  0  0  0  0  0  0  0  0  0  0  0
    1.0717   -0.6187    0.0000 C   0  0  0  0  0  0  0  0  0  0  0  0
    1.0717   -1.4437    0.0000 C   0  0  0  0  0  0  0  0  0  0  0  0
    0.3573   -1.8562    0.0000 C   0  0  0  0  0  0  0  0  0  0  0  0
   -0.3572   -1.4437    0.0000 C   0  0  0  0  0  0  0  0  0  0  0  0
   -0.3572   -0.6187    0.0000 C   0  0  0  0  0  0  0  0  0  0  0  0
   -1.0717   -0.2062    0.0000 O   0  0  0  0  0  0  0  0  0  0  0  0
  1  2  1  0      
  2  3  1  0      
  3  4  2  0      
  3  5  1  0      
  5  6  2  0      
  6  7  1  0      
  7  8  2  0      
  8  9  1  0      
  9 10  2  0      
  5 10  1  0      
 10 11  1  0      
M  END
>  <Bioactivity>
Methyl salicylate (oil of wintergreen or wintergreen oil) is an organic ester naturally produced by many species of plants, particularly wintergreens. It is also synthetically produced, used as a frag
rance, in foods and beverages, and in liniments.

>  <CAS>
119-36-8

>  <Col>
10

>  <Formula>
C8H8O3

>  <ID>
T0399

>  <Index>
9

>  <MOLENAME>
Methyl salicylate

>  <MolWt>
152.15

>  <Pathways>
Others

>  <Plate>
PLATE 001

>  <QR code>
1152410944

>  <Receptor>
Others

>  <Reference>
1. Spiandore M, et al. Drug Test Anal. 2014 Jun;6 Suppl 1:67-73.

>  <Row>
A

>  <SMILES>
COC(=O)C1=CC=CC=C1O

>  <Target>
Others

>  <Weight>
10.3mg

$$$$
Lab-1.sdf
  ChemDraw05232018482D

 24 24  0  0  0  0  0  0  0  0999 V2000
    4.6440    0.6188    0.0000 C   0  0  0  0  0  0  0  0  0  0  0  0
    3.9296    1.0313    0.0000 C   0  0  0  0  0  0  0  0  0  0  0  0
    3.9296    1.8562    0.0000 O   0  0  0  0  0  0  0  0  0  0  0  0
    3.2151    0.6188    0.0000 O   0  0  0  0  0  0  0  0  0  0  0  0
    2.5006    1.0313    0.0000 C   0  0  0  0  0  0  0  0  0  0  0  0
    1.7862    0.6188    0.0000 C   0  0  0  0  0  0  0  0  0  0  0  0
    1.0717    1.0313    0.0000 C   0  0  0  0  0  0  0  0  0  0  0  0
    1.0717    1.8562    0.0000 C   0  0  0  0  0  0  0  0  0  0  0  0
    0.3572    0.6188    0.0000 C   0  0  0  0  0  0  0  0  0  0  0  0
   -0.3573    1.0313    0.0000 C   0  0  0  0  0  0  0  0  0  0  0  0
   -1.0716    0.6188    0.0000 C   0  0  0  0  0  0  0  0  0  0  0  0
   -1.7862    1.0313    0.0000 C   0  0  0  0  0  0  0  0  0  0  0  0
   -1.7862    1.8562    0.0000 C   0  0  0  0  0  0  0  0  0  0  0  0
   -2.5006    0.6188    0.0000 C   0  0  0  0  0  0  0  0  0  0  0  0
   -2.5006   -0.2062    0.0000 C   0  0  0  0  0  0  0  0  0  0  0  0
   -3.2151   -0.6187    0.0000 C   0  0  0  0  0  0  0  0  0  0  0  0
   -3.2151   -1.4437    0.0000 C   0  0  0  0  0  0  0  0  0  0  0  0
   -2.5006   -1.8562    0.0000 C   0  0  0  0  0  0  0  0  0  0  0  0
   -3.9295   -1.8562    0.0000 C   0  0  0  0  0  0  0  0  0  0  0  0
   -4.6440   -1.4437    0.0000 C   0  0  0  0  0  0  0  0  0  0  0  0
   -4.6440   -0.6187    0.0000 C   0  0  0  0  0  0  0  0  0  0  0  0
   -3.9295   -0.2062    0.0000 C   0  0  0  0  0  0  0  0  0  0  0  0
   -4.3168    0.5222    0.0000 C   0  0  0  0  0  0  0  0  0  0  0  0
   -3.5422    0.5222    0.0000 C   0  0  0  0  0  0  0  0  0  0  0  0
  1  2  1  0      
  2  3  2  0      
  2  4  1  0      
  4  5  1  0      
  6  5  1  4      
  6  7  2  0      
  7  8  1  0      
  9  7  1  4      
  9 10  2  0      
 11 10  1  4      
 11 12  2  0      
 12 13  1  0      
 14 12  1  4      
 14 15  2  0      
 15 16  1  0      
 16 17  2  0      
 17 18  1  0      
 17 19  1  0      
 19 20  1  0      
 20 21  1  0      
 21 22  1  0      
 16 22  1  0      
 22 23  1  0      
 22 24  1  0      
M  END
>  <Bioactivity>
Vitamin A is a group of unsaturated nutritional hydrocarbons, that includes retinol, retinal, retinoic acid, and several provitamin A carotenoids, among which beta-carotene is the most important.

>  <CAS>
127-47-9

>  <Col>
11

>  <Formula>
C22H32O2

>  <ID>
T0685

>  <Index>
10

>  <MOLENAME>
Retinyl acetate

>  <MolWt>
328.5

>  <Pathways>
Vitamin

>  <Plate>
PLATE 001

>  <QR code>
1152410943

>  <Receptor>
VA

>  <Reference>
1. Stephensen CB, et al. Annu Rev Nutr, 2001, 21, 167-192.

>  <Row>
A

>  <SMILES>
CC(=O)OCC=C(C)C=CC=C(C)C=CC1=C(C)CCCC1(C)C

>  <Target>
VA

>  <Weight>
10.1mg

$$$$
Lab-1.sdf
  ChemDraw05232018482D

 10 10  0  0  0  0  0  0  0  0999 V2000
   -0.7144    1.8562    0.0000 C   0  0  0  0  0  0  0  0  0  0  0  0
    0.0000    1.4438    0.0000 C   0  0  0  0  0  0  0  0  0  0  0  0
    0.7144    1.8562    0.0000 C   0  0  0  0  0  0  0  0  0  0  0  0
    0.0000    0.6188    0.0000 C   0  0  0  0  0  0  0  0  0  0  0  0
    0.7144    0.2063    0.0000 C   0  0  0  0  0  0  0  0  0  0  0  0
    0.7144   -0.6187    0.0000 C   0  0  0  0  0  0  0  0  0  0  0  0
    0.0000   -1.0312    0.0000 C   0  0  0  0  0  0  0  0  0  0  0  0
    0.0000   -1.8562    0.0000 C   0  0  0  0  0  0  0  0  0  0  0  0
   -0.7144   -0.6187    0.0000 C   0  0  0  0  0  0  0  0  0  0  0  0
   -0.7144    0.2063    0.0000 C   0  0  0  0  0  0  0  0  0  0  0  0
  1  2  1  0      
  2  3  2  0      
  2  4  1  0      
  4  5  1  0      
  5  6  1  0      
  6  7  1  0      
  7  8  1  0      
  7  9  2  0      
  9 10  1  0      
  4 10  1  0      
M  END
>  <Bioactivity>
Limonene is a colourless liquid hydrocarbon classified as a cyclic terpene. The more common d-isomer possesses a strong smell of oranges. It is used in chemical synthesis as a precursor to carvone and
 as a renewables-based solvent in cleaning products.

>  <CAS>
138-86-3

>  <Col>
2

>  <Formula>
C10H16

>  <ID>
T1295

>  <Index>
11

>  <MOLENAME>
Cinene

>  <MolWt>
136.24

>  <Pathways>
Others

>  <Plate>
PLATE 001

>  <QR code>
1152410931

>  <Receptor>
Others

>  <Reference>
1. Chubukov V, et al. Appl Environ Microbiol. 2015 May 1. pii: AEM.01102-15.

>  <Row>
B

>  <SMILES>
CC(=C)C1CCC(C)=CC1

>  <Target>
Others

>  <Weight>
10.3mg

$$$$
Lab-1.sdf
  ChemDraw05232018482D

 36 35  0  0  0  0  0  0  0  0999 V2000
   -7.9142   -0.5082    0.0000 C   0  0  0  0  0  0  0  0  0  0  0  0
   -7.5017    0.2062    0.0000 C   0  0  0  0  0  0  0  0  0  0  0  0
   -7.0892    0.9207    0.0000 C   0  0  0  0  0  0  0  0  0  0  0  0
   -8.2162    0.6187    0.0000 C   0  0  0  0  0  0  0  0  0  0  0  0
   -8.9306    0.2062    0.0000 O   0  0  0  0  0  0  0  0  0  0  0  0
   -6.7872   -0.2062    0.0000 C   0  0  0  0  0  0  0  0  0  0  0  0
   -6.7872   -1.0312    0.0000 O   0  0  0  0  0  0  0  0  0  0  0  0
   -6.0728    0.2062    0.0000 C   0  0  0  0  0  0  0  0  0  0  0  0
   -6.0728    1.0312    0.0000 O   0  0  0  0  0  0  0  0  0  0  0  0
   -5.3584   -0.2062    0.0000 N   0  0  0  0  0  0  0  0  0  0  0  0
   -4.6439    0.2062    0.0000 C   0  0  0  0  0  0  0  0  0  0  0  0
   -3.9294   -0.2062    0.0000 C   0  0  0  0  0  0  0  0  0  0  0  0
   -3.2151    0.2062    0.0000 C   0  0  0  0  0  0  0  0  0  0  0  0
   -3.2151    1.0312    0.0000 O   0  0  0  0  0  0  0  0  0  0  0  0
   -2.5006   -0.2062    0.0000 N   0  0  0  0  0  0  0  0  0  0  0  0
   -1.7861    0.2062    0.0000 C   0  0  0  0  0  0  0  0  0  0  0  0
   -1.0716   -0.2062    0.0000 C   0  0  0  0  0  0  0  0  0  0  0  0
   -0.3572    0.2062    0.0000 S   0  0  0  0  0  0  0  0  0  0  0  0
    0.3572   -0.2062    0.0000 S   0  0  0  0  0  0  0  0  0  0  0  0
    1.0717    0.2062    0.0000 C   0  0  0  0  0  0  0  0  0  0  0  0
    1.7861   -0.2062    0.0000 C   0  0  0  0  0  0  0  0  0  0  0  0
    2.5006    0.2062    0.0000 N   0  0  0  0  0  0  0  0  0  0  0  0
    3.2151   -0.2062    0.0000 C   0  0  0  0  0  0  0  0  0  0  0  0
    3.2151   -1.0312    0.0000 O   0  0  0  0  0  0  0  0  0  0  0  0
    3.9295    0.2062    0.0000 C   0  0  0  0  0  0  0  0  0  0  0  0
    4.6439   -0.2062    0.0000 C   0  0  0  0  0  0  0  0  0  0  0  0
    5.3584    0.2062    0.0000 N   0  0  0  0  0  0  0  0  0  0  0  0
    6.0729   -0.2062    0.0000 C   0  0  0  0  0  0  0  0  0  0  0  0
    6.0729   -1.0312    0.0000 O   0  0  0  0  0  0  0  0  0  0  0  0
    6.7872    0.2062    0.0000 C   0  0  0  0  0  0  0  0  0  0  0  0
    6.7872    1.0312    0.0000 O   0  0  0  0  0  0  0  0  0  0  0  0
    7.5017   -0.2062    0.0000 C   0  0  0  0  0  0  0  0  0  0  0  0
    7.0892   -0.9207    0.0000 C   0  0  0  0  0  0  0  0  0  0  0  0
    7.9142    0.5082    0.0000 C   0  0  0  0  0  0  0  0  0  0  0  0
    8.2162   -0.6187    0.0000 C   0  0  0  0  0  0  0  0  0  0  0  0
    8.9306   -0.2062    0.0000 O   0  0  0  0  0  0  0  0  0  0  0  0
  1  2  1  0      
  2  3  1  0      
  2  4  1  0      
  4  5  1  0      
  2  6  1  0      
  6  7  1  0      
  6  8  1  0      
  8  9  2  0      
  8 10  1  0      
 10 11  1  0      
 11 12  1  0      
 12 13  1  0      
 13 14  2  0      
 13 15  1  0      
 15 16  1  0      
 16 17  1  0      
 17 18  1  0      
 18 19  1  0      
 19 20  1  0      
 20 21  1  0      
 21 22  1  0      
 22 23  1  0      
 23 24  2  0      
 23 25  1  0      
 25 26  1  0      
 26 27  1  0      
 27 28  1  0      
 28 29  2  0      
 28 30  1  0      
 30 31  1  0      
 30 32  1  0      
 32 33  1  0      
 32 34  1  0      
 32 35  1  0      
 35 36  1  0      
M  END
>  <Bioactivity>
Pantethine is a dimeric form of pantothenic acid, is an intermediate in the production of Coenzyme A, is available as a dietary supplement, and is used to treat acne and improve the blood-cholesterol 
profile.

>  <CAS>
16816-67-4

>  <Col>
3

>  <Formula>
C22H42N4O8S2

>  <ID>
T0978

>  <Index>
12

>  <MOLENAME>
D-Pantethine

>  <MolWt>
554.72

>  <Pathways>
Vitamin

>  <Plate>
PLATE 001

>  <QR code>
1152410932

>  <Receptor>
VB5

>  <Reference>
1. Shibata K, et al. J Nutr Sci Vitaminol (Tokyo). 2013;59(2):93-9.

>  <Row>
B

>  <SMILES>
CC(C)(CO)C(O)C(=O)NCCC(=O)NCCSSCCNC(=O)CCNC(=O)C(O)C(C)(C)CO

>  <Target>
VB

>  <Weight>
10.3mg

$$$$
Lab-1.sdf
  ChemDraw05232018482D

 16 16  0  0  0  0  0  0  0  0999 V2000
   -2.4390   -0.2795    0.0000 C   0  0  0  0  0  0  0  0  0  0  0  0
   -1.7245   -0.6920    0.0000 C   0  0  0  0  0  0  0  0  0  0  0  0
   -1.0100   -0.2795    0.0000 C   0  0  0  0  0  0  0  0  0  0  0  0
   -0.2956   -0.6920    0.0000 C   0  0  0  0  0  0  0  0  0  0  0  0
    0.4188   -0.2795    0.0000 C   0  0  0  0  0  0  0  0  0  0  0  0
    1.1333   -0.6920    0.0000 C   0  0  0  0  0  0  0  0  0  0  0  0
    1.8870   -0.3565    0.0000 C   0  0  0  0  0  0  0  0  0  0  0  0
    2.0585    0.4505    0.0000 C   0  0  0  0  0  0  0  0  0  0  0  0
    1.4454    1.0026    0.0000 C   0  0  0  0  0  0  0  0  0  0  0  0
    0.6608    0.7476    0.0000 O   0  0  0  0  0  0  0  0  0  0  0  0
    1.6169    1.8095    0.0000 O   0  0  0  0  0  0  0  0  0  0  0  0
    2.4015    2.0644    0.0000 C   0  0  0  0  0  0  0  0  0  0  0  0
    2.4390   -0.9695    0.0000 C   0  0  0  0  0  0  0  0  0  0  0  0
    2.0265   -1.6840    0.0000 C   0  0  0  0  0  0  0  0  0  0  0  0
    1.2195   -1.5125    0.0000 C   0  0  0  0  0  0  0  0  0  0  0  0
    0.6064   -2.0644    0.0000 O   0  0  0  0  0  0  0  0  0  0  0  0
  1  2  1  0      
  2  3  1  0      
  3  4  1  0      
  4  5  1  0      
  5  6  1  0      
  6  7  1  0      
  7  8  1  0      
  8  9  1  0      
  9 10  2  0      
  9 11  1  0      
 11 12  1  0      
  7 13  1  0      
 13 14  1  0      
 14 15  1  0      
  6 15  1  0      
 15 16  2  0      
M  END
>  <Bioactivity>
Methyl dihydrojasmonate is an ester and a diffusive aroma compound, with the smell vaguely similar to jasmine. In racemic mixtures the odor is floral and citrus while epimerized mixtures exhibit a den
se fatty floral odor with odor recognition thresholds of 15 parts per billion.

>  <CAS>
24851-98-7

>  <Col>
4

>  <Formula>
C13H22O3

>  <ID>
T2783

>  <Index>
13

>  <MOLENAME>
Methyl?Dihydrojasmonate;Hedione

>  <MolWt>
226.32

>  <Pathways>
Others

>  <Plate>
PLATE 001

>  <QR code>
1152410933

>  <Receptor>
Others

>  <Reference>
1. da Silva GB, et al. Int J Nanomedicine. 2014 Feb 11;9:867-76. 

>  <Row>
B

>  <SMILES>
CCCCCC1C(CC(=O)OC)CCC1=O

>  <Target>
Others

>  <Weight>
10.1mg

$$$$
Lab-1.sdf
  ChemDraw05232018482D

 11 11  0  0  0  0  0  0  0  0999 V2000
   -0.7144    2.4750    0.0000 C   0  0  0  0  0  0  0  0  0  0  0  0
    0.0001    2.0625    0.0000 O   0  0  0  0  0  0  0  0  0  0  0  0
    0.0001    1.2375    0.0000 C   0  0  0  0  0  0  0  0  0  0  0  0
    0.7144    0.8250    0.0000 C   0  0  0  0  0  0  0  0  0  0  0  0
    0.7144    0.0000    0.0000 C   0  0  0  0  0  0  0  0  0  0  0  0
    0.0001   -0.4125    0.0000 C   0  0  0  0  0  0  0  0  0  0  0  0
    0.0001   -1.2375    0.0000 C   0  0  0  0  0  0  0  0  0  0  0  0
   -0.7144   -1.6500    0.0000 C   0  0  0  0  0  0  0  0  0  0  0  0
   -0.7144   -2.4750    0.0000 C   0  0  0  0  0  0  0  0  0  0  0  0
   -0.7144    0.0000    0.0000 C   0  0  0  0  0  0  0  0  0  0  0  0
   -0.7144    0.8250    0.0000 C   0  0  0  0  0  0  0  0  0  0  0  0
  1  2  1  0      
  2  3  1  0      
  3  4  2  0      
  4  5  1  0      
  5  6  2  0      
  6  7  1  0      
  7  8  2  0      
  8  9  1  4      
  6 10  1  0      
 10 11  2  0      
  3 11  1  0      
M  END
>  <Bioactivity>
Anethole (anise camphor) is an organic compound that is widely used as a flavoring substance. It is a derivative of phenylpropene, a type of aromatic compound that occurs widely in nature, in essentia
l oils. 

>  <CAS>
4180-23-8

>  <Col>
5

>  <Formula>
C10H12O

>  <ID>
T0762

>  <Index>
14

>  <MOLENAME>
Trans-Anethole

>  <MolWt>
148.2

>  <Pathways>
Others

>  <Plate>
PLATE 001

>  <QR code>
1152410934

>  <Receptor>
Others

>  <Reference>
1. Ryu J, et al. J Agric Food Chem. 2005 Jul 27;53(15):5954-8.

>  <Row>
B

>  <SMILES>
COC1=CC=C(C=CC)C=C1

>  <Target>
Others

>  <Weight>
10.4mg

$$$$
Lab-1.sdf
  ChemDraw05232018482D

 11 12  0  0  0  0  0  0  0  0999 V2000
   -0.4063   -1.4188    0.0000 C   0  0  0  0  0  0  0  0  0  0  0  0
   -0.4063   -0.5938    0.0000 C   0  0  0  0  0  0  0  0  0  0  0  0
   -1.1207   -0.1813    0.0000 C   0  0  0  0  0  0  0  0  0  0  0  0
   -1.1207    0.6437    0.0000 C   0  0  0  0  0  0  0  0  0  0  0  0
   -0.4063    1.0562    0.0000 C   0  0  0  0  0  0  0  0  0  0  0  0
   -0.2688    0.5062    0.0000 C   0  0  0  0  0  0  0  0  0  0  0  0
   -0.2688   -0.0438    0.0000 C   0  0  0  0  0  0  0  0  0  0  0  0
    0.3082    0.6437    0.0000 C   0  0  0  0  0  0  0  0  0  0  0  0
    0.5904    1.4188    0.0000 C   0  0  0  0  0  0  0  0  0  0  0  0
    1.1207    0.5004    0.0000 C   0  0  0  0  0  0  0  0  0  0  0  0
    0.3082   -0.1813    0.0000 O   0  0  0  0  0  0  0  0  0  0  0  0
  1  2  1  0      
  2  3  1  0      
  3  4  1  0      
  4  5  1  0      
  5  6  1  0      
  6  7  1  0      
  2  7  1  0      
  5  8  1  0      
  8  9  1  0      
  8 10  1  0      
  8 11  1  0      
  2 11  1  0      
M  END
>  <Bioactivity>
Eucalyptol is a natural organic compound which is a colorless liquid. It is a cyclic ether and a monoterpenoid. Eucalyptol is an ingredient in many brands of mouthwash and cough suppressant. It contro
ls airway mucus hypersecretion and asthma via anti-inflammatory cytokine inhibition. Eucalyptol is an effective treatment for nonpurulent rhinosinusitis. Eucalyptol reduces inflammation and pain when 
applied topically. It kills leukaemia cells in vitro. 

>  <CAS>
470-82-6

>  <Col>
6

>  <Formula>
C10H18O

>  <ID>
T1714

>  <Index>
15

>  <MOLENAME>
Eucalyptol

>  <MolWt>
154.25

>  <Pathways>
Others

>  <Plate>
PLATE 001

>  <QR code>
1152410935

>  <Receptor>
Others

>  <Reference>
1. Zeraatpisheh Z, Vatanparast J. Eur J Pharmacol. 2015 Oct 5;764:70-8. 

>  <Row>
B

>  <SMILES>
CC12CCC(CC1)C(C)(C)O2

>  <Target>
Others

>  <Weight>
10.2mg

$$$$
Lab-1.sdf
  ChemDraw05232018482D

 13 14  0  0  0  0  0  0  0  0999 V2000
   -0.7846    1.0438    0.0000 C   0  0  0  0  0  0  0  0  0  0  0  0
   -0.7846    0.2188    0.0000 N   0  0  0  0  0  0  0  0  0  0  0  0
   -0.1172   -0.2661    0.0000 C   0  0  0  0  0  0  0  0  0  0  0  0
   -0.3721   -1.0507    0.0000 C   0  0  0  0  0  0  0  0  0  0  0  0
   -1.1971   -1.0507    0.0000 C   0  0  0  0  0  0  0  0  0  0  0  0
   -1.4521   -0.2661    0.0000 C   0  0  0  0  0  0  0  0  0  0  0  0
   -2.2367   -0.0112    0.0000 O   0  0  0  0  0  0  0  0  0  0  0  0
    0.6674   -0.0112    0.0000 C   0  0  0  0  0  0  0  0  0  0  0  0
    0.8390    0.7958    0.0000 C   0  0  0  0  0  0  0  0  0  0  0  0
    1.6236    1.0507    0.0000 N   0  0  0  0  0  0  0  0  0  0  0  0
    2.2367    0.4987    0.0000 C   0  0  0  0  0  0  0  0  0  0  0  0
    2.0651   -0.3083    0.0000 C   0  0  0  0  0  0  0  0  0  0  0  0
    1.2805   -0.5632    0.0000 C   0  0  0  0  0  0  0  0  0  0  0  0
  1  2  1  0      
  2  3  1  0      
  3  4  1  0      
  4  5  1  0      
  5  6  1  0      
  2  6  1  0      
  6  7  2  0      
  3  8  1  0      
  8  9  2  0      
  9 10  1  0      
 10 11  2  0      
 11 12  1  0      
 12 13  2  0      
  8 13  1  0      
M  END
>  <Bioactivity>
Cotinine is an alkaloid found in tobacco and is also the predominant metabolite of nicotine, used as a biomarker for exposure to tobacco smoke.

>  <CAS>
486-56-6

>  <Col>
7

>  <Formula>
C10H12N2O

>  <ID>
T1202

>  <Index>
16

>  <MOLENAME>
(-)-Cotinine

>  <MolWt>
176.22

>  <Pathways>
Neuroscience

>  <Plate>
PLATE 001

>  <QR code>
1152410936

>  <Receptor>
Nicotinic Receptor

>  <Reference>
1. S¨¢nchez-Rodr¨ªguez JE, et al. Environ Res. 2015 Jan;136:227-33. 

>  <Row>
B

>  <SMILES>
CN1C(CCC1=O)C1=CN=CC=C1

>  <Target>
AChR antagonist

>  <Weight>
10.3mg

$$$$
Lab-1.sdf
  ChemDraw05232018482D

 17 17  0  0  0  0  0  0  0  0999 V2000
    0.2409    2.2707    0.0000 C   0  0  0  0  0  0  0  0  0  0  0  0
    0.4400    1.4701    0.0000 C   0  0  0  0  0  0  0  0  0  0  0  0
    1.1262    1.9282    0.0000 C   0  0  0  0  0  0  0  0  0  0  0  0
    1.7739    1.4172    0.0000 C   0  0  0  0  0  0  0  0  0  0  0  0
    1.4880    0.6433    0.0000 C   0  0  0  0  0  0  0  0  0  0  0  0
    1.7855   -0.2090    0.0000 C   0  0  0  0  0  0  0  0  0  0  0  0
    1.2744   -0.8566    0.0000 C   0  0  0  0  0  0  0  0  0  0  0  0
    1.5798   -1.6230    0.0000 C   0  0  0  0  0  0  0  0  0  0  0  0
    1.0688   -2.2707    0.0000 C   0  0  0  0  0  0  0  0  0  0  0  0
    0.2524   -2.1520    0.0000 C   0  0  0  0  0  0  0  0  0  0  0  0
   -0.0529   -1.3856    0.0000 C   0  0  0  0  0  0  0  0  0  0  0  0
   -0.8693   -1.2669    0.0000 C   0  0  0  0  0  0  0  0  0  0  0  0
   -1.1747   -0.5005    0.0000 C   0  0  0  0  0  0  0  0  0  0  0  0
   -0.6637    0.1471    0.0000 C   0  0  0  0  0  0  0  0  0  0  0  0
   -0.9691    0.9135    0.0000 C   0  0  0  0  0  0  0  0  0  0  0  0
   -1.7855    1.0322    0.0000 O   0  0  0  0  0  0  0  0  0  0  0  0
   -0.4581    1.5612    0.0000 C   0  0  0  0  0  0  0  0  0  0  0  0
  1  2  1  0      
  2  3  1  0      
  3  4  1  0      
  4  5  1  0      
  5  6  1  0      
  6  7  1  0      
  7  8  1  0      
  8  9  1  0      
  9 10  1  0      
 10 11  1  0      
 11 12  1  0      
 12 13  1  0      
 13 14  1  0      
 14 15  1  0      
 15 16  2  0      
 15 17  1  0      
  2 17  1  0      
M  END
>  <Bioactivity>
Muscone is an organic compound that is the primary contributor to the odor of musk.

>  <CAS>
541-91-3

>  <Col>
8

>  <Formula>
C16H30O

>  <ID>
T2893

>  <Index>
17

>  <MOLENAME>
Muscone

>  <MolWt>
238.41

>  <Pathways>
Proteases/Proteasome

>  <Plate>
PLATE 001

>  <QR code>
1152410937

>  <Receptor>
P-gp; MMP-9 

>  <Reference>
1. Wang GY, Wang N, Liao HN. Cell Mol Neurobiol. 2015 Nov;35(8):1105-15. 

>  <Row>
B

>  <SMILES>
CC1CCCCCCCCCCCCC(=O)C1

>  <Target>
MMP inhibitor

>  <Weight>
10.2mg

$$$$
Lab-1.sdf
  ChemDraw05232018482D

 34 35  0  0  0  0  0  0  0  0999 V2000
   -5.8614    0.9417    0.0000 C   0  0  0  0  0  0  0  0  0  0  0  0
   -5.0364    0.9417    0.0000 C   0  0  0  0  0  0  0  0  0  0  0  0
   -4.6239    1.6562    0.0000 C   0  0  0  0  0  0  0  0  0  0  0  0
   -4.6239    0.2273    0.0000 C   0  0  0  0  0  0  0  0  0  0  0  0
   -3.7989    0.2273    0.0000 C   0  0  0  0  0  0  0  0  0  0  0  0
   -3.3864   -0.4872    0.0000 C   0  0  0  0  0  0  0  0  0  0  0  0
   -2.5614   -0.4872    0.0000 C   0  0  0  0  0  0  0  0  0  0  0  0
   -2.1489    0.2273    0.0000 C   0  0  0  0  0  0  0  0  0  0  0  0
   -2.1489   -1.2017    0.0000 C   0  0  0  0  0  0  0  0  0  0  0  0
   -1.3239   -1.2017    0.0000 C   0  0  0  0  0  0  0  0  0  0  0  0
   -0.9114   -1.9161    0.0000 C   0  0  0  0  0  0  0  0  0  0  0  0
   -0.0864   -1.9161    0.0000 C   0  0  0  0  0  0  0  0  0  0  0  0
    0.3260   -2.6306    0.0000 C   0  0  0  0  0  0  0  0  0  0  0  0
    0.3260   -1.2017    0.0000 C   0  0  0  0  0  0  0  0  0  0  0  0
   -0.0864   -0.4872    0.0000 C   0  0  0  0  0  0  0  0  0  0  0  0
    0.3260    0.2273    0.0000 C   0  0  0  0  0  0  0  0  0  0  0  0
    1.1510    0.2273    0.0000 C   0  0  0  0  0  0  0  0  0  0  0  0
    1.0077   -0.5852    0.0000 C   0  0  0  0  0  0  0  0  0  0  0  0
    1.0077    1.0397    0.0000 C   0  0  0  0  0  0  0  0  0  0  0  0
    1.6397    1.5700    0.0000 C   0  0  0  0  0  0  0  0  0  0  0  0
    2.4150    1.2879    0.0000 C   0  0  0  0  0  0  0  0  0  0  0  0
    3.0469    1.8182    0.0000 C   0  0  0  0  0  0  0  0  0  0  0  0
    2.9037    2.6306    0.0000 C   0  0  0  0  0  0  0  0  0  0  0  0
    3.8222    1.5360    0.0000 C   0  0  0  0  0  0  0  0  0  0  0  0
    4.4542    2.0663    0.0000 O   0  0  0  0  0  0  0  0  0  0  0  0
    5.2294    1.7841    0.0000 C   0  0  0  0  0  0  0  0  0  0  0  0
    5.8614    2.3144    0.0000 C   0  0  0  0  0  0  0  0  0  0  0  0
    5.3727    0.9717    0.0000 O   0  0  0  0  0  0  0  0  0  0  0  0
    3.9654    0.7235    0.0000 C   0  0  0  0  0  0  0  0  0  0  0  0
    4.7407    0.4414    0.0000 C   0  0  0  0  0  0  0  0  0  0  0  0
    3.3335    0.1932    0.0000 C   0  0  0  0  0  0  0  0  0  0  0  0
    3.4767   -0.6192    0.0000 C   0  0  0  0  0  0  0  0  0  0  0  0
    2.5582    0.4754    0.0000 C   0  0  0  0  0  0  0  0  0  0  0  0
    1.9262   -0.0549    0.0000 O   0  0  0  0  0  0  0  0  0  0  0  0
  1  2  1  0      
  2  3  1  0      
  2  4  1  0      
  4  5  1  0      
  5  6  1  0      
  6  7  1  0      
  7  8  1  0      
  7  9  1  0      
  9 10  1  0      
 10 11  1  0      
 11 12  1  0      
 12 13  1  0      
 12 14  1  0      
 14 15  1  0      
 15 16  1  0      
 16 17  1  0      
 17 18  1  0      
 17 19  1  0      
 19 20  1  0      
 20 21  1  0      
 21 22  2  0      
 22 23  1  0      
 22 24  1  0      
 24 25  1  0      
 25 26  1  0      
 26 27  1  0      
 26 28  2  0      
 24 29  2  0      
 29 30  1  0      
 29 31  1  0      
 31 32  1  0      
 31 33  2  0      
 21 33  1  0      
 33 34  1  0      
 17 34  1  0      
M  END
>  <Bioactivity>
A natural tocopherol and one of the most potent antioxidant tocopherols. It exhibits antioxidant activity by virtue of the phenolic hydrogen on the 2H-1-benzopyran-6-ol nucleus. It has four methyl gro
ups on the 6-chromanol nucleus. The natural d form of alpha-tocopherol is more active than its synthetic dl-alpha-tocopherol racemic mixture.

>  <CAS>
58-95-7

>  <Col>
9

>  <Formula>
C31H52O3

>  <ID>
T1016

>  <Index>
18

>  <MOLENAME>
Vitamin?E?Acetate

>  <MolWt>
472.76

>  <Pathways>
Vitamin

>  <Plate>
PLATE 001

>  <QR code>
1152410938

>  <Receptor>
VE

>  <Reference>
1. Beijersbergen van Henegouwen GM, et al. J Photochem Photobiol B. 1995 Jul;29(1):45-51.

>  <Row>
B

>  <SMILES>
CC(C)CCCC(C)CCCC(C)CCCC1(C)CCC2=C(C)C(OC(C)=O)=C(C)C(C)=C2O1

>  <Target>
VE

>  <Weight>
10.1mg

$$$$
Lab-1.sdf
  ChemDraw05232018482D

 31 32  0  0  0  0  0  0  0  0999 V2000
   -5.4884    1.5886    0.0000 C   0  0  0  0  0  0  0  0  0  0  0  0
   -4.7740    2.0011    0.0000 C   0  0  0  0  0  0  0  0  0  0  0  0
   -4.7740    2.8261    0.0000 C   0  0  0  0  0  0  0  0  0  0  0  0
   -4.0595    1.5886    0.0000 C   0  0  0  0  0  0  0  0  0  0  0  0
   -3.3451    2.0011    0.0000 C   0  0  0  0  0  0  0  0  0  0  0  0
   -2.6306    1.5886    0.0000 C   0  0  0  0  0  0  0  0  0  0  0  0
   -1.9162    2.0011    0.0000 C   0  0  0  0  0  0  0  0  0  0  0  0
   -1.9162    2.8261    0.0000 C   0  0  0  0  0  0  0  0  0  0  0  0
   -1.2017    1.5886    0.0000 C   0  0  0  0  0  0  0  0  0  0  0  0
   -0.4872    2.0011    0.0000 C   0  0  0  0  0  0  0  0  0  0  0  0
    0.2272    1.5886    0.0000 C   0  0  0  0  0  0  0  0  0  0  0  0
    0.9417    2.0011    0.0000 C   0  0  0  0  0  0  0  0  0  0  0  0
    0.9417    2.8261    0.0000 C   0  0  0  0  0  0  0  0  0  0  0  0
    1.6562    1.5886    0.0000 C   0  0  0  0  0  0  0  0  0  0  0  0
    2.3706    2.0011    0.0000 C   0  0  0  0  0  0  0  0  0  0  0  0
    3.0851    1.5886    0.0000 C   0  0  0  0  0  0  0  0  0  0  0  0
    3.0851    0.7636    0.0000 C   0  0  0  0  0  0  0  0  0  0  0  0
    2.2727    0.9068    0.0000 C   0  0  0  0  0  0  0  0  0  0  0  0
    3.8976    0.9068    0.0000 C   0  0  0  0  0  0  0  0  0  0  0  0
    4.4278    0.2749    0.0000 C   0  0  0  0  0  0  0  0  0  0  0  0
    4.1456   -0.5004    0.0000 C   0  0  0  0  0  0  0  0  0  0  0  0
    4.6759   -1.1324    0.0000 C   0  0  0  0  0  0  0  0  0  0  0  0
    5.4884   -0.9891    0.0000 C   0  0  0  0  0  0  0  0  0  0  0  0
    4.3938   -1.9076    0.0000 C   0  0  0  0  0  0  0  0  0  0  0  0
    4.9241   -2.5396    0.0000 O   0  0  0  0  0  0  0  0  0  0  0  0
    3.5814   -2.0509    0.0000 C   0  0  0  0  0  0  0  0  0  0  0  0
    3.2992   -2.8261    0.0000 C   0  0  0  0  0  0  0  0  0  0  0  0
    3.0511   -1.4189    0.0000 C   0  0  0  0  0  0  0  0  0  0  0  0
    2.2386   -1.5622    0.0000 C   0  0  0  0  0  0  0  0  0  0  0  0
    3.3333   -0.6436    0.0000 C   0  0  0  0  0  0  0  0  0  0  0  0
    2.8030   -0.0117    0.0000 O   0  0  0  0  0  0  0  0  0  0  0  0
  1  2  1  0      
  2  3  1  0      
  2  4  1  0      
  4  5  1  0      
  5  6  1  0      
  6  7  1  0      
  7  8  1  0      
  7  9  1  0      
  9 10  1  0      
 10 11  1  0      
 11 12  1  0      
 12 13  1  0      
 12 14  1  0      
 14 15  1  0      
 15 16  1  0      
 16 17  1  0      
 17 18  1  0      
 17 19  1  0      
 19 20  1  0      
 20 21  1  0      
 21 22  2  0      
 22 23  1  0      
 22 24  1  0      
 24 25  1  0      
 24 26  2  0      
 26 27  1  0      
 26 28  1  0      
 28 29  1  0      
 28 30  2  0      
 21 30  1  0      
 30 31  1  0      
 17 31  1  0      
M  END
>  <Bioactivity>
A generic descriptor for all tocopherols and tocotrienols that exhibit alpha-tocopherol activity. By virtue of the phenolic hydrogen on the 2H-1-benzopyran-6-ol nucleus, these compounds exhibit varyin
g degree of antioxidant activity, depending on the site and number of methyl groups and the type of isoprenoids. 

>  <CAS>
59-02-9

>  <Col>
10

>  <Formula>
C29H50O2

>  <ID>
T1648

>  <Index>
19

>  <MOLENAME>
Vitamin E

>  <MolWt>
430.71

>  <Pathways>
Cell Cycle/Checkpoint; Vitamin

>  <Plate>
PLATE 001

>  <QR code>
1152410939

>  <Receptor>
GST P; GST omega-1; GST Mu 3; PKC; SEC14-like protein; VE

>  <Reference>
1. Ralat LA, Colman RF. Biochemistry. 2006 Oct 17;45(41):12491-9. 

>  <Row>
B

>  <SMILES>
CC(C)CCCC(C)CCCC(C)CCCC1(C)CCC2=C(C)C(O)=C(C)C(C)=C2O1

>  <Target>
PKC inhibitor; SEC14-like protein; VE

>  <Weight>
10.4mg

$$$$
Lab-1.sdf
  ChemDraw05232018482D

 10 10  0  0  0  0  0  0  0  0999 V2000
   -0.7144    2.2687    0.0000 S   0  0  0  0  0  0  0  0  0  0  0  0
   -0.7144    1.4438    0.0000 C   0  0  0  0  0  0  0  0  0  0  0  0
   -0.7144    0.6188    0.0000 N   0  0  0  0  0  0  0  0  0  0  0  0
    0.0001    0.2062    0.0000 C   0  0  0  0  0  0  0  0  0  0  0  0
    0.0001   -0.6188    0.0000 C   0  0  0  0  0  0  0  0  0  0  0  0
    0.7144   -1.0312    0.0000 C   0  0  0  0  0  0  0  0  0  0  0  0
    0.7144   -1.8562    0.0000 C   0  0  0  0  0  0  0  0  0  0  0  0
    0.0001   -2.2687    0.0000 C   0  0  0  0  0  0  0  0  0  0  0  0
   -0.7144   -1.8562    0.0000 C   0  0  0  0  0  0  0  0  0  0  0  0
   -0.7144   -1.0312    0.0000 C   0  0  0  0  0  0  0  0  0  0  0  0
  1  2  2  0      
  2  3  2  0      
  3  4  1  0      
  4  5  1  0      
  5  6  2  0      
  6  7  1  0      
  7  8  2  0      
  8  9  1  0      
  9 10  2  0      
  5 10  1  0      
M  END
>  <Bioactivity>
It is an organic compound.

>  <CAS>
622-78-6

>  <Col>
11

>  <Formula>
C8H7NS

>  <ID>
T1082

>  <Index>
20

>  <MOLENAME>
Benzyl isothiocyanate

>  <MolWt>
149.22

>  <Pathways>
Others

>  <Plate>
PLATE 001

>  <QR code>
1152410940

>  <Receptor>
Others

>  <Reference>
1. Sehrawat A, Singh SV. Mol Carcinog. 2015 Apr 7.

>  <Row>
B

>  <SMILES>
S=C=NCC1=CC=CC=C1

>  <Target>
Others

>  <Weight>
10.1mg

$$$$
Lab-1.sdf
  ChemDraw05232018482D

  9  9  0  0  0  0  0  0  0  0999 V2000
   -0.7144    1.8562    0.0000 N   0  0  0  0  0  0  0  0  0  0  0  0
   -0.7144    1.0313    0.0000 C   0  0  0  0  0  0  0  0  0  0  0  0
    0.0001    0.6188    0.0000 C   0  0  0  0  0  0  0  0  0  0  0  0
    0.0001   -0.2062    0.0000 C   0  0  0  0  0  0  0  0  0  0  0  0
    0.7144   -0.6187    0.0000 C   0  0  0  0  0  0  0  0  0  0  0  0
    0.7144   -1.4437    0.0000 C   0  0  0  0  0  0  0  0  0  0  0  0
    0.0001   -1.8562    0.0000 C   0  0  0  0  0  0  0  0  0  0  0  0
   -0.7144   -1.4437    0.0000 C   0  0  0  0  0  0  0  0  0  0  0  0
   -0.7144   -0.6187    0.0000 C   0  0  0  0  0  0  0  0  0  0  0  0
  1  2  1  0      
  2  3  1  0      
  3  4  1  0      
  4  5  2  0      
  5  6  1  0      
  6  7  2  0      
  7  8  1  0      
  8  9  2  0      
  4  9  1  0      
M  END
>  <Bioactivity>
Phenylethylamine functions as a monoaminergic neuromodulator and, to a lesser extent, a neurotransmitter in the human central nervous system.

>  <CAS>
64-04-0

>  <Col>
2

>  <Formula>
C8H11N

>  <ID>
T2935

>  <Index>
21

>  <MOLENAME>
Phenethylamine

>  <MolWt>
121.18

>  <Pathways>
Others

>  <Plate>
PLATE 001

>  <QR code>
1152410928

>  <Receptor>
Others

>  <Reference>
1. Le Roux G, et al. Drug Alcohol Depend. 2015 Sep 1;154:46-53.

>  <Row>
C

>  <SMILES>
NCCC1=CC=CC=C1

>  <Target>
Others

>  <Weight>
10.2mg

$$$$
Lab-1.sdf
  ChemDraw05232018482D

 14 15  0  0  0  0  0  0  0  0999 V2000
   -1.4724    1.2952    0.0000 C   0  0  0  0  0  0  0  0  0  0  0  0
   -0.6850    1.0489    0.0000 C   0  0  0  0  0  0  0  0  0  0  0  0
   -0.0781    1.6075    0.0000 O   0  0  0  0  0  0  0  0  0  0  0  0
   -0.4980    0.2136    0.0000 O   0  0  0  0  0  0  0  0  0  0  0  0
    0.1559   -0.3868    0.0000 C   0  0  0  0  0  0  0  0  0  0  0  0
    0.1369   -1.2115    0.0000 C   0  0  0  0  0  0  0  0  0  0  0  0
    0.7297   -1.6075    0.0000 C   0  0  0  0  0  0  0  0  0  0  0  0
    1.4534   -1.2115    0.0000 C   0  0  0  0  0  0  0  0  0  0  0  0
    1.4724   -0.3868    0.0000 C   0  0  0  0  0  0  0  0  0  0  0  0
    0.7675    0.0419    0.0000 C   0  0  0  0  0  0  0  0  0  0  0  0
    0.8775    0.8944    0.0000 C   0  0  0  0  0  0  0  0  0  0  0  0
    0.5424   -0.7781    0.0000 C   0  0  0  0  0  0  0  0  0  0  0  0
   -0.4236   -0.4486    0.0000 C   0  0  0  0  0  0  0  0  0  0  0  0
   -0.3812   -1.2422    0.0000 C   0  0  0  0  0  0  0  0  0  0  0  0
  1  2  1  0      
  2  3  2  0      
  2  4  1  0      
  4  5  1  0      
  5  6  1  0      
  6  7  1  0      
  7  8  1  0      
  8  9  1  0      
  9 10  1  0      
  5 10  1  0      
 10 11  1  0      
 10 12  1  0      
  7 12  1  0      
 12 13  1  0      
 12 14  1  0      
M  END
>  <Bioactivity>
Bornyl acetate is the main volatile constituent in numerous conifer oils and some Chinese traditional herbs, which has displayed an anti-inflammatory effect before. 

>  <CAS>
76-49-3

>  <Col>
3

>  <Formula>
C12H20O2

>  <ID>
T1246

>  <Index>
22

>  <MOLENAME>
Bornyl acetate

>  <MolWt>
196.29

>  <Pathways>
Immunology/Inflammation

>  <Plate>
PLATE 001

>  <QR code>
1152410927

>  <Receptor>
IL receptor

>  <Reference>
1. Yang H, et al. IUBMB Life. 2014 Dec;66(12):854-9. 

>  <Row>
C

>  <SMILES>
CC(=O)OC1CC2CCC1(C)C2(C)C

>  <Target>
IL inhibitor

>  <Weight>
10.3mg

$$$$
Lab-1.sdf
  ChemDraw05232018482D

 14 13  0  0  0  0  0  0  0  0999 V2000
   -1.3737   -0.9207    0.0000 C   0  0  0  0  0  0  0  0  0  0  0  0
   -1.7861   -0.2062    0.0000 C   0  0  0  0  0  0  0  0  0  0  0  0
   -2.1986    0.5081    0.0000 C   0  0  0  0  0  0  0  0  0  0  0  0
   -2.5006   -0.6187    0.0000 C   0  0  0  0  0  0  0  0  0  0  0  0
   -3.2150   -0.2062    0.0000 O   0  0  0  0  0  0  0  0  0  0  0  0
   -1.0717    0.2062    0.0000 C   0  0  0  0  0  0  0  0  0  0  0  0
   -1.0717    1.0312    0.0000 O   0  0  0  0  0  0  0  0  0  0  0  0
   -0.3572   -0.2062    0.0000 C   0  0  0  0  0  0  0  0  0  0  0  0
   -0.3572   -1.0312    0.0000 O   0  0  0  0  0  0  0  0  0  0  0  0
    0.3572    0.2062    0.0000 N   0  0  0  0  0  0  0  0  0  0  0  0
    1.0717   -0.2062    0.0000 C   0  0  0  0  0  0  0  0  0  0  0  0
    1.7861    0.2062    0.0000 C   0  0  0  0  0  0  0  0  0  0  0  0
    2.5005   -0.2062    0.0000 C   0  0  0  0  0  0  0  0  0  0  0  0
    3.2150    0.2062    0.0000 O   0  0  0  0  0  0  0  0  0  0  0  0
  1  2  1  0      
  2  3  1  0      
  2  4  1  0      
  4  5  1  0      
  2  6  1  0      
  6  7  1  0      
  6  8  1  0      
  8  9  2  0      
  8 10  1  0      
 10 11  1  0      
 11 12  1  0      
 12 13  1  0      
 13 14  1  0      
M  END
>  <Bioactivity>
Panthenol (pantothenol) is the alcohol analog of pantothenic acid (vitamin B5), and is thus a provitamin of B5.

>  <CAS>
81-13-0

>  <Col>
4

>  <Formula>
C9H19NO4

>  <ID>
T1437

>  <Index>
23

>  <MOLENAME>
Dexpanthenol

>  <MolWt>
205.25

>  <Pathways>
Vitamin

>  <Plate>
PLATE 001

>  <QR code>
1152410926

>  <Receptor>
VB5

>  <Reference>
1. Ebner F, et al. Am J Clin Dermatol. 2002; 3(6):427-33.

>  <Row>
C

>  <SMILES>
CC(C)(CO)C(O)C(=O)NCCCO

>  <Target>
VB

>  <Weight>
10.2mg

$$$$
Lab-1.sdf
  ChemDraw05232018482D

 36 36  0  0  0  0  0  0  0  0999 V2000
    1.4289    2.4749    0.0000 O   0  0  0  0  0  0  0  0  0  0  0  0
    0.7144    2.0624    0.0000 P   0  0  0  0  0  0  0  0  0  0  0  0
    0.3019    2.7769    0.0000 O   0  0  0  0  0  0  0  0  0  0  0  0
    1.1269    1.3480    0.0000 O   0  0  0  0  0  0  0  0  0  0  0  0
   -0.0000    1.6500    0.0000 O   0  0  0  0  0  0  0  0  0  0  0  0
   -0.0000    0.8250    0.0000 C   0  0  0  0  0  0  0  0  0  0  0  0
    0.7144    0.4125    0.0000 C   0  0  0  0  0  0  0  0  0  0  0  0
    1.4289    0.8250    0.0000 O   0  0  0  0  0  0  0  0  0  0  0  0
    2.1433    0.4125    0.0000 P   0  0  0  0  0  0  0  0  0  0  0  0
    1.7308   -0.3020    0.0000 O   0  0  0  0  0  0  0  0  0  0  0  0
    2.5558    1.1270    0.0000 O   0  0  0  0  0  0  0  0  0  0  0  0
    2.8578    0.0000    0.0000 O   0  0  0  0  0  0  0  0  0  0  0  0
    0.7144   -0.4125    0.0000 C   0  0  0  0  0  0  0  0  0  0  0  0
    1.4289   -0.8250    0.0000 O   0  0  0  0  0  0  0  0  0  0  0  0
    1.4289   -1.6500    0.0000 P   0  0  0  0  0  0  0  0  0  0  0  0
    0.6039   -1.6500    0.0000 O   0  0  0  0  0  0  0  0  0  0  0  0
    2.2538   -1.6500    0.0000 O   0  0  0  0  0  0  0  0  0  0  0  0
    1.4289   -2.4749    0.0000 O   0  0  0  0  0  0  0  0  0  0  0  0
   -0.0000   -0.8250    0.0000 C   0  0  0  0  0  0  0  0  0  0  0  0
   -0.0000   -1.6500    0.0000 O   0  0  0  0  0  0  0  0  0  0  0  0
   -0.7145   -2.0624    0.0000 P   0  0  0  0  0  0  0  0  0  0  0  0
   -1.4290   -2.4749    0.0000 O   0  0  0  0  0  0  0  0  0  0  0  0
   -1.1270   -1.3480    0.0000 O   0  0  0  0  0  0  0  0  0  0  0  0
   -0.3020   -2.7769    0.0000 O   0  0  0  0  0  0  0  0  0  0  0  0
   -0.7145   -0.4125    0.0000 C   0  0  0  0  0  0  0  0  0  0  0  0
   -1.4290   -0.8250    0.0000 O   0  0  0  0  0  0  0  0  0  0  0  0
   -2.1433   -0.4125    0.0000 P   0  0  0  0  0  0  0  0  0  0  0  0
   -1.7308    0.3020    0.0000 O   0  0  0  0  0  0  0  0  0  0  0  0
   -2.5558   -1.1270    0.0000 O   0  0  0  0  0  0  0  0  0  0  0  0
   -2.8578    0.0000    0.0000 O   0  0  0  0  0  0  0  0  0  0  0  0
   -0.7145    0.4125    0.0000 C   0  0  0  0  0  0  0  0  0  0  0  0
   -1.4290    0.8250    0.0000 O   0  0  0  0  0  0  0  0  0  0  0  0
   -1.4290    1.6500    0.0000 P   0  0  0  0  0  0  0  0  0  0  0  0
   -0.6040    1.6500    0.0000 O   0  0  0  0  0  0  0  0  0  0  0  0
   -2.2539    1.6500    0.0000 O   0  0  0  0  0  0  0  0  0  0  0  0
   -1.4290    2.4749    0.0000 O   0  0  0  0  0  0  0  0  0  0  0  0
  1  2  1  0      
  2  3  1  0      
  2  4  2  0      
  2  5  1  0      
  5  6  1  0      
  6  7  1  0      
  7  8  1  0      
  8  9  1  0      
  9 10  1  0      
  9 11  1  0      
  9 12  2  0      
  7 13  1  0      
 13 14  1  0      
 14 15  1  0      
 15 16  1  0      
 15 17  1  0      
 15 18  2  0      
 13 19  1  0      
 19 20  1  0      
 20 21  1  0      
 21 22  1  0      
 21 23  1  0      
 21 24  2  0      
 19 25  1  0      
 25 26  1  0      
 26 27  1  0      
 27 28  1  0      
 27 29  1  0      
 27 30  2  0      
 25 31  1  0      
  6 31  1  0      
 31 32  1  0      
 32 33  1  0      
 33 34  1  0      
 33 35  1  0      
 33 36  2  0      
M  END
>  <Bioactivity>
Extracted from Plant seeds;Suitability:Water,ethanol and acetone;Store the product in sealed,cool and dry condition

>  <CAS>
83-86-3

>  <Col>
5

>  <Formula>
C6H18O24P6

>  <ID>
T2971

>  <Index>
24

>  <MOLENAME>
Phytic acid

>  <MolWt>
660.04

>  <Pathways>
Others

>  <Plate>
PLATE 001

>  <QR code>
1152410925

>  <Receptor>
Others

>  <Reference>
1. Lv Y, et al. Neurosci Lett. 2015 Jun 15;597:132-6. 

>  <Row>
C

>  <SMILES>
OP(O)(=O)OC1C(OP(O)(O)=O)C(OP(O)(O)=O)C(OP(O)(O)=O)C(OP(O)(O)=O)C1OP(O)(O)=O

>  <Target>
Others

>  <Weight>
10mg

$$$$
Lab-1.sdf
  ChemDraw05232018482D

 33 34  0  0  0  0  0  0  0  0999 V2000
   -6.7872    0.6187    0.0000 C   0  0  0  0  0  0  0  0  0  0  0  0
   -6.0729    1.0312    0.0000 C   0  0  0  0  0  0  0  0  0  0  0  0
   -6.0729    1.8562    0.0000 C   0  0  0  0  0  0  0  0  0  0  0  0
   -5.3584    0.6187    0.0000 C   0  0  0  0  0  0  0  0  0  0  0  0
   -4.6439    1.0312    0.0000 C   0  0  0  0  0  0  0  0  0  0  0  0
   -3.9295    0.6187    0.0000 C   0  0  0  0  0  0  0  0  0  0  0  0
   -3.2151    1.0312    0.0000 C   0  0  0  0  0  0  0  0  0  0  0  0
   -3.2151    1.8562    0.0000 C   0  0  0  0  0  0  0  0  0  0  0  0
   -2.5006    0.6187    0.0000 C   0  0  0  0  0  0  0  0  0  0  0  0
   -1.7861    1.0312    0.0000 C   0  0  0  0  0  0  0  0  0  0  0  0
   -1.0717    0.6187    0.0000 C   0  0  0  0  0  0  0  0  0  0  0  0
   -0.3572    1.0312    0.0000 C   0  0  0  0  0  0  0  0  0  0  0  0
   -0.3572    1.8562    0.0000 C   0  0  0  0  0  0  0  0  0  0  0  0
    0.3572    0.6187    0.0000 C   0  0  0  0  0  0  0  0  0  0  0  0
    1.0716    1.0312    0.0000 C   0  0  0  0  0  0  0  0  0  0  0  0
    1.7861    0.6187    0.0000 C   0  0  0  0  0  0  0  0  0  0  0  0
    2.5006    1.0312    0.0000 C   0  0  0  0  0  0  0  0  0  0  0  0
    2.5006    1.8562    0.0000 C   0  0  0  0  0  0  0  0  0  0  0  0
    3.2151    0.6187    0.0000 C   0  0  0  0  0  0  0  0  0  0  0  0
    3.9294    1.0312    0.0000 C   0  0  0  0  0  0  0  0  0  0  0  0
    4.6439    0.6187    0.0000 C   0  0  0  0  0  0  0  0  0  0  0  0
    5.3584    1.0312    0.0000 C   0  0  0  0  0  0  0  0  0  0  0  0
    5.3584    1.8562    0.0000 C   0  0  0  0  0  0  0  0  0  0  0  0
    6.0728    0.6187    0.0000 C   0  0  0  0  0  0  0  0  0  0  0  0
    6.7872    1.0312    0.0000 O   0  0  0  0  0  0  0  0  0  0  0  0
    6.0728   -0.2062    0.0000 C   0  0  0  0  0  0  0  0  0  0  0  0
    6.7872   -0.6187    0.0000 C   0  0  0  0  0  0  0  0  0  0  0  0
    6.7872   -1.4437    0.0000 C   0  0  0  0  0  0  0  0  0  0  0  0
    6.0728   -1.8562    0.0000 C   0  0  0  0  0  0  0  0  0  0  0  0
    5.3584   -1.4437    0.0000 C   0  0  0  0  0  0  0  0  0  0  0  0
    5.3584   -0.6187    0.0000 C   0  0  0  0  0  0  0  0  0  0  0  0
    4.6439   -0.2062    0.0000 C   0  0  0  0  0  0  0  0  0  0  0  0
    3.9294   -0.6187    0.0000 O   0  0  0  0  0  0  0  0  0  0  0  0
  1  2  1  0      
  2  3  1  0      
  2  4  1  0      
  4  5  1  0      
  5  6  1  0      
  6  7  1  0      
  7  8  1  0      
  7  9  1  0      
  9 10  1  0      
 10 11  1  0      
 11 12  1  0      
 12 13  1  0      
 12 14  1  0      
 14 15  1  0      
 15 16  1  0      
 16 17  1  0      
 17 18  1  0      
 17 19  2  0      
 19 20  1  4      
 20 21  1  0      
 21 22  2  0      
 22 23  1  0      
 22 24  1  0      
 24 25  2  0      
 24 26  1  0      
 26 27  2  0      
 27 28  1  0      
 28 29  2  0      
 29 30  1  0      
 30 31  2  0      
 26 31  1  0      
 31 32  1  0      
 21 32  1  0      
 32 33  2  0      
M  END
>  <Bioactivity>
A family of phylloquinones that contains a ring of 2-methyl-1,4-naphthoquinone and an isoprenoid side chain. Members of this group of vitamin K 1 have only one double bond on the proximal isoprene uni
t. Rich sources of vitamin K 1 include green plants, algae, and photosynthetic bacteria. Vitamin K1 has antihemorrhagic and prothrombogenic activity.

>  <CAS>
84-80-0

>  <Col>
6

>  <Formula>
C31H46O2

>  <ID>
T1075

>  <Index>
25

>  <MOLENAME>
Vitamin K1

>  <MolWt>
450.71

>  <Pathways>
Others

>  <Plate>
PLATE 001

>  <QR code>
1152410924

>  <Receptor>
Osteocalcin; GGCX

>  <Reference>
1. Morris DP, et al. J Biol Chem. 1993 Apr 25;268(12):8735-42. 

>  <Row>
C

>  <SMILES>
CC(C)CCCC(C)CCCC(C)CCCC(C)=CCC1=C(C)C(=O)C2=CC=CC=C2C1=O

>  <Target>
Others

>  <Weight>
10.6mg

$$$$
Lab-1.sdf
  ChemDraw05232018482D

  9  9  0  0  0  0  0  0  0  0999 V2000
   -0.3572    1.4437    0.0000 C   0  0  0  0  0  0  0  0  0  0  0  0
    0.3573    1.0313    0.0000 O   0  0  0  0  0  0  0  0  0  0  0  0
    0.3573    0.2063    0.0000 C   0  0  0  0  0  0  0  0  0  0  0  0
    1.0717   -0.2062    0.0000 C   0  0  0  0  0  0  0  0  0  0  0  0
    1.0717   -1.0312    0.0000 C   0  0  0  0  0  0  0  0  0  0  0  0
    0.3573   -1.4437    0.0000 C   0  0  0  0  0  0  0  0  0  0  0  0
   -0.3572   -1.0312    0.0000 C   0  0  0  0  0  0  0  0  0  0  0  0
   -0.3572   -0.2062    0.0000 C   0  0  0  0  0  0  0  0  0  0  0  0
   -1.0717    0.2063    0.0000 O   0  0  0  0  0  0  0  0  0  0  0  0
  1  2  1  0      
  2  3  1  0      
  3  4  2  0      
  4  5  1  0      
  5  6  2  0      
  6  7  1  0      
  7  8  2  0      
  3  8  1  0      
  8  9  1  0      
M  END
>  <Bioactivity>
Guaiacol is a precursor to various flavorants, such as eugenol and vanillin. Its derivatives are used medicinally as an expectorant, antiseptic, and local anesthetic. It also can be used as an indicat
or in chemical reactions that produce oxygen. When oxygen binds to it, the complex turns yellowish brown and absorbs light maximally at about 470 nm.

>  <CAS>
90-05-1

>  <Col>
7

>  <Formula>
C7H8O2

>  <ID>
T1301

>  <Index>
26

>  <MOLENAME>
Guaiacol

>  <MolWt>
124.14

>  <Pathways>
Others

>  <Plate>
PLATE 001

>  <QR code>
1152410923

>  <Receptor>
Others

>  <Reference>
1. Dorfner R, et al. J Agric Food Chem. 2003 Sep 10;51(19):5768-73.

>  <Row>
C

>  <SMILES>
COC1=CC=CC=C1O

>  <Target>
Others

>  <Weight>
10.6mg

$$$$
Lab-1.sdf
  ChemDraw05232018482D

 12 12  0  0  0  0  0  0  0  0999 V2000
    1.4289    1.4437    0.0000 C   0  0  0  0  0  0  0  0  0  0  0  0
    0.7145    1.0313    0.0000 O   0  0  0  0  0  0  0  0  0  0  0  0
    0.7145    0.2063    0.0000 C   0  0  0  0  0  0  0  0  0  0  0  0
    1.4289   -0.2062    0.0000 C   0  0  0  0  0  0  0  0  0  0  0  0
    2.1434    0.2063    0.0000 O   0  0  0  0  0  0  0  0  0  0  0  0
    1.4289   -1.0312    0.0000 C   0  0  0  0  0  0  0  0  0  0  0  0
    0.7145   -1.4437    0.0000 C   0  0  0  0  0  0  0  0  0  0  0  0
   -0.0000   -1.0312    0.0000 C   0  0  0  0  0  0  0  0  0  0  0  0
   -0.7145   -1.4437    0.0000 C   0  0  0  0  0  0  0  0  0  0  0  0
   -1.4289   -1.0312    0.0000 C   0  0  0  0  0  0  0  0  0  0  0  0
   -2.1434   -1.4437    0.0000 C   0  0  0  0  0  0  0  0  0  0  0  0
   -0.0000   -0.2062    0.0000 C   0  0  0  0  0  0  0  0  0  0  0  0
  1  2  1  0      
  2  3  1  0      
  3  4  2  0      
  4  5  1  0      
  4  6  1  0      
  6  7  2  0      
  7  8  1  0      
  8  9  1  0      
  9 10  1  0      
 10 11  2  0      
  8 12  2  0      
  3 12  1  0      
M  END
>  <Bioactivity>
Eugenol is a Standardized Chemical Allergen. The physiologic effect of eugenol is by means of Increased Histamine Release and Cell-mediated Immunity. The chemical classification of eugenol is Allergen
s. from FDA Pharm Classe

>  <CAS>
97-53-0

>  <Col>
8

>  <Formula>
C10H12O2

>  <ID>
T1297

>  <Index>
27

>  <MOLENAME>
Eugenol

>  <MolWt>
164.2

>  <Pathways>
Others

>  <Plate>
PLATE 001

>  <QR code>
1152410922

>  <Receptor>
Others

>  <Reference>
1. Jadhav BK, et al. Drug Dev Ind Pharm. 2004 Feb;30(2):195-203.

>  <Row>
C

>  <SMILES>
COC1=C(O)C=CC(CC=C)=C1

>  <Target>
Others

>  <Weight>
10.5mg

$$$$
Lab-1.sdf
  ChemDraw05232018482D

 46 52  0  0  0  0  0  0  0  0999 V2000
   -1.0546    3.1805    0.0000 C   0  0  0  0  0  0  0  0  0  0  0  0
   -1.4265    2.4269    0.0000 C   0  0  0  0  0  0  0  0  0  0  0  0
   -1.2844    1.5116    0.0000 N   0  0  0  0  0  0  0  0  0  0  0  0
   -1.8525    0.8552    0.0000 C   0  0  0  0  0  0  0  0  0  0  0  0
   -1.5255    0.0915    0.0000 C   0  0  0  0  0  0  0  0  0  0  0  0
   -1.3236   -0.6941    0.0000 C   0  0  0  0  0  0  0  0  0  0  0  0
   -0.5615   -0.9365    0.0000 C   0  0  0  0  0  0  0  0  0  0  0  0
   -0.0070   -0.3484    0.0000 C   0  0  0  0  0  0  0  0  0  0  0  0
   -0.1866    0.4684    0.0000 C   0  0  0  0  0  0  0  0  0  0  0  0
   -0.8171    0.4116    0.0000 C   0  0  0  0  0  0  0  0  0  0  0  0
   -0.9123    1.2448    0.0000 C   0  0  0  0  0  0  0  0  0  0  0  0
    0.0731    1.5696    0.0000 C   0  0  0  0  0  0  0  0  0  0  0  0
   -0.4746    1.4264    0.0000 C   0  0  0  0  0  0  0  0  0  0  0  0
    0.9731    1.3771    0.0000 C   0  0  0  0  0  0  0  0  0  0  0  0
    1.0623    0.6090    0.0000 C   0  0  0  0  0  0  0  0  0  0  0  0
    0.6290    0.0812    0.0000 C   0  0  0  0  0  0  0  0  0  0  0  0
    1.3886   -0.4472    0.0000 C   0  0  0  0  0  0  0  0  0  0  0  0
    2.1650    0.2198    0.0000 C   0  0  0  0  0  0  0  0  0  0  0  0
    1.7363   -0.0617    0.0000 C   0  0  0  0  0  0  0  0  0  0  0  0
    2.2776   -0.7558    0.0000 O   0  0  0  0  0  0  0  0  0  0  0  0
    2.9502   -1.2052    0.0000 C   0  0  0  0  0  0  0  0  0  0  0  0
    3.6571   -0.8564    0.0000 O   0  0  0  0  0  0  0  0  0  0  0  0
    2.8986   -1.9916    0.0000 C   0  0  0  0  0  0  0  0  0  0  0  0
    3.5540   -2.4295    0.0000 C   0  0  0  0  0  0  0  0  0  0  0  0
    3.5025   -3.2159    0.0000 C   0  0  0  0  0  0  0  0  0  0  0  0
    2.7956   -3.5647    0.0000 C   0  0  0  0  0  0  0  0  0  0  0  0
    2.1402   -3.1268    0.0000 C   0  0  0  0  0  0  0  0  0  0  0  0
    2.1917   -2.3402    0.0000 C   0  0  0  0  0  0  0  0  0  0  0  0
    2.3887    1.0440    0.0000 C   0  0  0  0  0  0  0  0  0  0  0  0
    1.7617    1.5763    0.0000 C   0  0  0  0  0  0  0  0  0  0  0  0
    2.2144    2.2592    0.0000 O   0  0  0  0  0  0  0  0  0  0  0  0
    3.1852    1.3864    0.0000 O   0  0  0  0  0  0  0  0  0  0  0  0
    3.6426    2.0583    0.0000 C   0  0  0  0  0  0  0  0  0  0  0  0
    3.0103    0.0326    0.0000 O   0  0  0  0  0  0  0  0  0  0  0  0
    0.9353    2.2385    0.0000 O   0  0  0  0  0  0  0  0  0  0  0  0
    0.3124    2.7928    0.0000 C   0  0  0  0  0  0  0  0  0  0  0  0
   -0.4357    2.5448    0.0000 O   0  0  0  0  0  0  0  0  0  0  0  0
    0.4718    3.5647    0.0000 C   0  0  0  0  0  0  0  0  0  0  0  0
   -1.8258    1.6042    0.0000 O   0  0  0  0  0  0  0  0  0  0  0  0
   -2.6371    1.8523    0.0000 C   0  0  0  0  0  0  0  0  0  0  0  0
    0.1029   -1.2455    0.0000 O   0  0  0  0  0  0  0  0  0  0  0  0
    0.2837   -2.0591    0.0000 C   0  0  0  0  0  0  0  0  0  0  0  0
   -1.7627   -1.4269    0.0000 O   0  0  0  0  0  0  0  0  0  0  0  0
   -2.3480   -0.2359    0.0000 C   0  0  0  0  0  0  0  0  0  0  0  0
   -3.1634   -0.1099    0.0000 O   0  0  0  0  0  0  0  0  0  0  0  0
   -3.6571   -0.7242    0.0000 C   0  0  0  0  0  0  0  0  0  0  0  0
  1  2  1  0      
  2  3  1  0      
  3  4  1  0      
  4  5  1  0      
  5  6  1  0      
  6  7  1  0      
  7  8  1  0      
  8  9  1  0      
  9 10  1  0      
  5 10  1  0      
 10 11  1  0      
 11 12  1  0      
 12 13  1  0      
  9 13  1  0      
  3 13  1  0      
 12 14  1  0      
 14 15  1  0      
 15 16  1  0      
  9 16  1  0      
 16 17  1  0      
 17 18  1  0      
 18 19  1  0      
 15 19  1  0      
 19 20  1  0      
 20 21  1  0      
 21 22  2  0      
 21 23  1  0      
 23 24  2  0      
 24 25  1  0      
 25 26  2  0      
 26 27  1  0      
 27 28  2  0      
 23 28  1  0      
 18 29  1  0      
 29 30  1  0      
 14 30  1  0      
 30 31  1  0      
 29 32  1  0      
 32 33  1  0      
 18 34  1  0      
 14 35  1  0      
 35 36  1  0      
 36 37  2  0      
 36 38  1  0      
 11 39  1  0      
 39 40  1  0      
  8 41  1  0      
 41 42  1  0      
  6 43  1  0      
  5 44  1  0      
 44 45  1  0      
 45 46  1  0      
M  END
>  <Bioactivity>
Aconitine is a neurotoxin which activates tetrodotoxin-sensitive Na+ channels,inducing presynaptic depolarization and blocking the release of neurotransmitters. Aconitine also blocks norepinephrine re
uptake.

>  <CAS>
302-27-2

>  <Col>
9

>  <Formula>
C34H47NO11

>  <ID>
T2135

>  <Index>
28

>  <MOLENAME>
Aconitine

>  <MolWt>
645.74

>  <Pathways>
Membrane Transporter/Ion Channel

>  <Plate>
PLATE 001

>  <QR code>
1152410921

>  <Receptor>
Sodium Channel

>  <Reference>
1. Zhou YH, et al. Int J Med Sci. 2013 Aug 1;10(9):1242-9.

>  <Row>
C

>  <SMILES>
CCN1CC2(C(CC(C34C2C(C(C31)C5(C6C4CC(C6OC(=O)C7=CC=CC=C7)(C(C5O)OC)O)OC(=O)C)OC)OC)O)COC

>  <Target>
Sodium Channel agonist

>  <Weight>
9.8mg

$$$$
Lab-1.sdf
  ChemDraw05232018482D

 29 35  0  0  0  0  0  0  0  0999 V2000
   -3.3271    0.6592    0.0000 C   0  0  0  0  0  0  0  0  0  0  0  0
   -2.5915    1.0086    0.0000 O   0  0  0  0  0  0  0  0  0  0  0  0
   -1.9210    0.5462    0.0000 C   0  0  0  0  0  0  0  0  0  0  0  0
   -1.9862   -0.2655    0.0000 C   0  0  0  0  0  0  0  0  0  0  0  0
   -1.3158   -0.7279    0.0000 C   0  0  0  0  0  0  0  0  0  0  0  0
   -0.5801   -0.3785    0.0000 C   0  0  0  0  0  0  0  0  0  0  0  0
   -0.5150    0.4333    0.0000 C   0  0  0  0  0  0  0  0  0  0  0  0
   -1.1854    0.8957    0.0000 C   0  0  0  0  0  0  0  0  0  0  0  0
    0.3180    0.7355    0.0000 C   0  0  0  0  0  0  0  0  0  0  0  0
   -0.2188    1.4095    0.0000 C   0  0  0  0  0  0  0  0  0  0  0  0
    0.2346    2.1062    0.0000 C   0  0  0  0  0  0  0  0  0  0  0  0
    1.1000    1.9707    0.0000 N   0  0  0  0  0  0  0  0  0  0  0  0
    1.0400    1.2025    0.0000 C   0  0  0  0  0  0  0  0  0  0  0  0
    1.9562    1.0115    0.0000 C   0  0  0  0  0  0  0  0  0  0  0  0
    1.8971    0.4998    0.0000 C   0  0  0  0  0  0  0  0  0  0  0  0
    1.5004   -0.1471    0.0000 C   0  0  0  0  0  0  0  0  0  0  0  0
    0.6797   -0.0223    0.0000 C   0  0  0  0  0  0  0  0  0  0  0  0
    0.1934   -0.6801    0.0000 N   0  0  0  0  0  0  0  0  0  0  0  0
    0.5648   -1.4242    0.0000 C   0  0  0  0  0  0  0  0  0  0  0  0
    0.1198   -2.1062    0.0000 O   0  0  0  0  0  0  0  0  0  0  0  0
    1.3979   -1.4647    0.0000 C   0  0  0  0  0  0  0  0  0  0  0  0
    1.9177   -0.7944    0.0000 C   0  0  0  0  0  0  0  0  0  0  0  0
    2.7621   -0.7528    0.0000 O   0  0  0  0  0  0  0  0  0  0  0  0
    3.3271   -0.1039    0.0000 C   0  0  0  0  0  0  0  0  0  0  0  0
    3.1723    0.7065    0.0000 C   0  0  0  0  0  0  0  0  0  0  0  0
    2.5040    1.1793    0.0000 C   0  0  0  0  0  0  0  0  0  0  0  0
    2.0017    2.0150    0.0000 C   0  0  0  0  0  0  0  0  0  0  0  0
   -2.7219   -0.6149    0.0000 O   0  0  0  0  0  0  0  0  0  0  0  0
   -2.7870   -1.4267    0.0000 C   0  0  0  0  0  0  0  0  0  0  0  0
  1  2  1  0      
  2  3  1  0      
  3  4  2  0      
  4  5  1  0      
  5  6  2  0      
  6  7  1  0      
  7  8  2  0      
  3  8  1  0      
  7  9  1  0      
  9 10  1  0      
 10 11  1  0      
 11 12  1  0      
 12 13  1  0      
  9 13  1  0      
 13 14  1  0      
 14 15  1  0      
 15 16  1  0      
 16 17  1  0      
  9 17  1  0      
 17 18  1  0      
  6 18  1  0      
 18 19  1  0      
 19 20  2  0      
 19 21  1  0      
 21 22  1  0      
 16 22  1  0      
 22 23  1  0      
 23 24  1  0      
 24 25  1  0      
 25 26  2  0      
 15 26  1  0      
 26 27  1  0      
 12 27  1  0      
  4 28  1  0      
 28 29  1  0      
M  END
>  <Bioactivity>
Extracted from Strychnos nux-vomica L.

>  <CAS>
357-57-3

>  <Col>
10

>  <Formula>
C23H26N2O4

>  <ID>
T0047

>  <Index>
29

>  <MOLENAME>
Brucin

>  <MolWt>
394.46

>  <Pathways>
Others

>  <Plate>
PLATE 001

>  <QR code>
1152410920

>  <Receptor>
Others

>  <Reference>
1. Liu F, et al. Int J Biol Macromol. 2015 Jun;77:92-8.

>  <Row>
C

>  <SMILES>
COC1=C(C=C2C(=C1)C34CCN5C3CC6C7C4N2C(=O)CC7OCC=C6C5)OC

>  <Target>
Others

>  <Weight>
10.1mg

$$$$
Lab-1.sdf
  ChemDraw05232018482D

 25 31  0  0  0  0  0  0  0  0999 V2000
    0.4927   -2.1825    0.0000 O   0  0  0  0  0  0  0  0  0  0  0  0
    0.0573   -1.4988    0.0000 C   0  0  0  0  0  0  0  0  0  0  0  0
   -0.7662   -1.5486    0.0000 C   0  0  0  0  0  0  0  0  0  0  0  0
   -1.2350   -0.8657    0.0000 C   0  0  0  0  0  0  0  0  0  0  0  0
   -2.0647   -0.9234    0.0000 O   0  0  0  0  0  0  0  0  0  0  0  0
   -2.6281   -0.3144    0.0000 C   0  0  0  0  0  0  0  0  0  0  0  0
   -2.4773    0.5134    0.0000 C   0  0  0  0  0  0  0  0  0  0  0  0
   -1.7978    1.0226    0.0000 C   0  0  0  0  0  0  0  0  0  0  0  0
   -1.4001    1.8390    0.0000 C   0  0  0  0  0  0  0  0  0  0  0  0
   -0.5094    1.9485    0.0000 N   0  0  0  0  0  0  0  0  0  0  0  0
    0.3213    2.1825    0.0000 C   0  0  0  0  0  0  0  0  0  0  0  0
    0.8518    1.5208    0.0000 C   0  0  0  0  0  0  0  0  0  0  0  0
    0.4592    0.7149    0.0000 C   0  0  0  0  0  0  0  0  0  0  0  0
    1.2199    0.3670    0.0000 C   0  0  0  0  0  0  0  0  0  0  0  0
    1.9196    0.7759    0.0000 C   0  0  0  0  0  0  0  0  0  0  0  0
    2.6237    0.3745    0.0000 C   0  0  0  0  0  0  0  0  0  0  0  0
    2.6281   -0.4359    0.0000 C   0  0  0  0  0  0  0  0  0  0  0  0
    1.9284   -0.8450    0.0000 C   0  0  0  0  0  0  0  0  0  0  0  0
    1.2243   -0.4436    0.0000 C   0  0  0  0  0  0  0  0  0  0  0  0
    0.4585   -0.7593    0.0000 N   0  0  0  0  0  0  0  0  0  0  0  0
    0.0344   -0.0787    0.0000 C   0  0  0  0  0  0  0  0  0  0  0  0
   -0.8094   -0.1769    0.0000 C   0  0  0  0  0  0  0  0  0  0  0  0
   -1.2179    0.5026    0.0000 C   0  0  0  0  0  0  0  0  0  0  0  0
   -0.6941    0.8820    0.0000 C   0  0  0  0  0  0  0  0  0  0  0  0
   -0.1519    1.2390    0.0000 C   0  0  0  0  0  0  0  0  0  0  0  0
  1  2  2  0      
  2  3  1  0      
  3  4  1  0      
  4  5  1  0      
  5  6  1  0      
  6  7  1  0      
  7  8  2  0      
  8  9  1  0      
  9 10  1  0      
 10 11  1  0      
 11 12  1  0      
 12 13  1  0      
 13 14  1  0      
 14 15  4  0      
 15 16  4  0      
 16 17  4  0      
 17 18  4  0      
 18 19  4  0      
 14 19  4  0      
 19 20  1  0      
  2 20  1  0      
 20 21  1  0      
 13 21  1  0      
 21 22  1  0      
  4 22  1  0      
 22 23  1  0      
  8 23  1  0      
 23 24  1  0      
 24 25  1  0      
 10 25  1  0      
 13 25  1  0      
M  END
>  <Bioactivity>
An alkaloid found in the seeds of STRYCHNOS NUX-VOMICA. It is a competitive antagonist at glycine receptors and thus a convulsant. It has been used as an analeptic, in the treatment of nonketotic hype
rglycinemia and sleep apnea, and as a rat poison. 

>  <CAS>
57-24-9

>  <Col>
11

>  <Formula>
C21H22N2O2

>  <ID>
T0052

>  <Index>
30

>  <MOLENAME>
Strychnine

>  <MolWt>
334.41

>  <Pathways>
Neuroscience

>  <Plate>
PLATE 001

>  <QR code>
1152410919

>  <Receptor>
Glycine receptor; Neuronal AChR

>  <Reference>
1. Brams et al.  PLoS Biol, 2011, 9 (3).

>  <Row>
C

>  <SMILES>
O=C2CC4OCC=C5CN6CCC37c1ccccc1N2C3C4C5CC67

>  <Target>
AChR antagonist

>  <Weight>
10.2mg

$$$$
Lab-1.sdf
  ChemDraw05232018482D

 14 15  0  0  0  0  0  0  0  0999 V2000
   -1.4765    1.4520    0.0000 C   0  0  0  0  0  0  0  0  0  0  0  0
   -1.2216    0.6674    0.0000 N   0  0  0  0  0  0  0  0  0  0  0  0
   -1.7064    0.0000    0.0000 C   0  0  0  0  0  0  0  0  0  0  0  0
   -1.2216   -0.6675    0.0000 N   0  0  0  0  0  0  0  0  0  0  0  0
   -0.4369   -0.4125    0.0000 C   0  0  0  0  0  0  0  0  0  0  0  0
   -0.4369    0.4125    0.0000 C   0  0  0  0  0  0  0  0  0  0  0  0
    0.2775    0.8250    0.0000 C   0  0  0  0  0  0  0  0  0  0  0  0
    0.2775    1.6500    0.0000 O   0  0  0  0  0  0  0  0  0  0  0  0
    0.9920    0.4125    0.0000 N   0  0  0  0  0  0  0  0  0  0  0  0
    0.9920   -0.4125    0.0000 C   0  0  0  0  0  0  0  0  0  0  0  0
    1.7064   -0.8250    0.0000 O   0  0  0  0  0  0  0  0  0  0  0  0
    0.2775   -0.8250    0.0000 N   0  0  0  0  0  0  0  0  0  0  0  0
    0.2775   -1.6500    0.0000 C   0  0  0  0  0  0  0  0  0  0  0  0
    1.7064    0.8250    0.0000 C   0  0  0  0  0  0  0  0  0  0  0  0
  1  2  1  0      
  2  3  1  0      
  3  4  2  0      
  4  5  1  0      
  5  6  2  0      
  2  6  1  0      
  6  7  1  0      
  7  8  2  0      
  7  9  1  0      
  9 10  1  0      
 10 11  2  0      
 10 12  1  0      
  5 12  1  0      
 12 13  1  0      
  9 14  1  0      
M  END
>  <Bioactivity>
A methylxanthine naturally occurring in some beverages and also used as a pharmacological agent. Caffeine's most notable pharmacological effect is as a central nervous system stimulant, increasing ale
rtness and producing agitation. It also relaxes SMOOTH MUSCLE, stimulates CARDIAC MUSCLE, stimulates DIURESIS, and appears to be useful in the treatment of some types of headache. Several cellular act
ions of caffeine have been observed, but it is not entirely clear how each contributes to its pharmacological profile. Among the most important are inhibition of cyclic nucleotide PHOSPHODIESTERASES, 
antagonism of ADENOSINE RECEPTORS, and modulation of intracellular calcium handling. 

>  <CAS>
58-08-2

>  <Col>
2

>  <Formula>
C8H10N4O2

>  <ID>
T1256

>  <Index>
31

>  <MOLENAME>
Caffeine

>  <MolWt>
194.19

>  <Pathways>
Metabolism; GPCR/G Protein

>  <Plate>
PLATE 001

>  <QR code>
1152410907

>  <Receptor>
Adenosine receptor A; PDE

>  <Reference>
1. Daly JW, et al. Cell Mol Life Sci. 2007 Aug;64(16):2153-69.

>  <Row>
D

>  <SMILES>
CN1C=NC2=C1C(=O)N(C(=O)N2C)C

>  <Target>
Adenosine receptor antagonist; PDE inhibitor

>  <Weight>
10.3mg

$$$$
Lab-1.sdf
  ChemDraw05232018482D

 19 21  0  0  0  0  0  0  0  0999 V2000
   -0.8053    2.9173    0.0000 O   0  0  0  0  0  0  0  0  0  0  0  0
   -0.2533    2.3042    0.0000 C   0  0  0  0  0  0  0  0  0  0  0  0
   -0.5082    1.5196    0.0000 C   0  0  0  0  0  0  0  0  0  0  0  0
   -0.0233    0.8522    0.0000 O   0  0  0  0  0  0  0  0  0  0  0  0
   -0.5082    0.1847    0.0000 C   0  0  0  0  0  0  0  0  0  0  0  0
   -1.2929    0.4397    0.0000 C   0  0  0  0  0  0  0  0  0  0  0  0
   -1.9603   -0.0453    0.0000 O   0  0  0  0  0  0  0  0  0  0  0  0
   -1.2929    1.2647    0.0000 C   0  0  0  0  0  0  0  0  0  0  0  0
   -1.9603    1.7496    0.0000 O   0  0  0  0  0  0  0  0  0  0  0  0
   -0.2533   -0.5999    0.0000 N   0  0  0  0  0  0  0  0  0  0  0  0
   -0.7382   -1.2673    0.0000 C   0  0  0  0  0  0  0  0  0  0  0  0
   -0.2533   -1.9348    0.0000 N   0  0  0  0  0  0  0  0  0  0  0  0
    0.5313   -1.6798    0.0000 C   0  0  0  0  0  0  0  0  0  0  0  0
    0.5313   -0.8548    0.0000 C   0  0  0  0  0  0  0  0  0  0  0  0
    1.2458   -0.4423    0.0000 N   0  0  0  0  0  0  0  0  0  0  0  0
    1.9603   -0.8548    0.0000 C   0  0  0  0  0  0  0  0  0  0  0  0
    1.9603   -1.6798    0.0000 N   0  0  0  0  0  0  0  0  0  0  0  0
    1.2458   -2.0923    0.0000 C   0  0  0  0  0  0  0  0  0  0  0  0
    1.2458   -2.9173    0.0000 O   0  0  0  0  0  0  0  0  0  0  0  0
  1  2  1  0      
  2  3  1  0      
  3  4  1  0      
  4  5  1  0      
  5  6  1  0      
  6  7  1  0      
  6  8  1  0      
  3  8  1  0      
  8  9  1  0      
  5 10  1  0      
 10 11  1  0      
 11 12  2  0      
 12 13  1  0      
 13 14  2  0      
 10 14  1  0      
 14 15  1  0      
 15 16  1  0      
 16 17  2  0      
 17 18  1  0      
 13 18  1  0      
 18 19  2  0      
M  END
>  <Bioactivity>
A purine nucleoside that has hypoxanthine linked by the N9 nitrogen to the C1 carbon of ribose. It is an intermediate in the degradation of purines and purine nucleosides to uric acid and in pathways 
of purine salvage. It also occurs in the anticodon of certain transfer RNA molecules.

>  <CAS>
58-63-9

>  <Col>
3

>  <Formula>
C10H12N4O5

>  <ID>
T0437

>  <Index>
32

>  <MOLENAME>
Inosine

>  <MolWt>
268.23

>  <Pathways>
Metabolism

>  <Plate>
PLATE 001

>  <QR code>
1152410908

>  <Receptor>
Xanthine oxidase

>  <Reference>
1. Krebs HA, et al. Biochim Biophys Acta, 1953, 12(1-2), 172-180.

>  <Row>
D

>  <SMILES>
OCC1OC(C(O)C1O)N1C=NC2=C1NC=NC2=O

>  <Target>
Xanthine Oxidase inhibitor

>  <Weight>
10.4mg

$$$$
Lab-1.sdf
  ChemDraw05232018482D

 29 32  0  0  0  0  0  0  0  0999 V2000
    1.4674   -1.7019    0.0000 C   0  0  0  0  0  0  0  0  0  0  0  0
    1.7783   -0.9377    0.0000 C   0  0  0  0  0  0  0  0  0  0  0  0
    2.5955   -0.8248    0.0000 C   0  0  0  0  0  0  0  0  0  0  0  0
    3.1019   -1.4762    0.0000 C   0  0  0  0  0  0  0  0  0  0  0  0
    3.9191   -1.3633    0.0000 C   0  0  0  0  0  0  0  0  0  0  0  0
    4.4256   -2.0146    0.0000 O   0  0  0  0  0  0  0  0  0  0  0  0
    4.2300   -0.5991    0.0000 O   0  0  0  0  0  0  0  0  0  0  0  0
    1.2719   -0.2864    0.0000 C   0  0  0  0  0  0  0  0  0  0  0  0
    1.5012    0.5061    0.0000 C   0  0  0  0  0  0  0  0  0  0  0  0
    0.8184    0.9691    0.0000 C   0  0  0  0  0  0  0  0  0  0  0  0
    0.1670    0.4628    0.0000 C   0  0  0  0  0  0  0  0  0  0  0  0
   -0.6452    0.6080    0.0000 C   0  0  0  0  0  0  0  0  0  0  0  0
   -1.1770   -0.0227    0.0000 C   0  0  0  0  0  0  0  0  0  0  0  0
   -0.8967   -0.7987    0.0000 C   0  0  0  0  0  0  0  0  0  0  0  0
   -0.0846   -0.9439    0.0000 C   0  0  0  0  0  0  0  0  0  0  0  0
    0.1958   -1.7198    0.0000 O   0  0  0  0  0  0  0  0  0  0  0  0
    0.4473   -0.3132    0.0000 C   0  0  0  0  0  0  0  0  0  0  0  0
    0.8072   -1.0555    0.0000 C   0  0  0  0  0  0  0  0  0  0  0  0
   -1.9891    0.1225    0.0000 C   0  0  0  0  0  0  0  0  0  0  0  0
   -1.7088   -0.6534    0.0000 C   0  0  0  0  0  0  0  0  0  0  0  0
   -2.5209   -0.5082    0.0000 C   0  0  0  0  0  0  0  0  0  0  0  0
   -3.3330   -0.3630    0.0000 C   0  0  0  0  0  0  0  0  0  0  0  0
   -3.6133    0.4129    0.0000 C   0  0  0  0  0  0  0  0  0  0  0  0
   -4.4256    0.5581    0.0000 O   0  0  0  0  0  0  0  0  0  0  0  0
   -3.0815    1.0436    0.0000 C   0  0  0  0  0  0  0  0  0  0  0  0
   -2.2694    0.8984    0.0000 C   0  0  0  0  0  0  0  0  0  0  0  0
   -1.7376    1.5291    0.0000 C   0  0  0  0  0  0  0  0  0  0  0  0
   -0.9255    1.3839    0.0000 C   0  0  0  0  0  0  0  0  0  0  0  0
   -0.3937    2.0146    0.0000 O   0  0  0  0  0  0  0  0  0  0  0  0
  1  2  1  0      
  2  3  1  0      
  3  4  1  0      
  4  5  1  0      
  5  6  1  0      
  5  7  2  0      
  2  8  1  0      
  8  9  1  0      
  9 10  1  0      
 10 11  1  0      
 11 12  1  0      
 12 13  1  0      
 13 14  1  0      
 14 15  1  0      
 15 16  2  0      
 15 17  1  0      
  8 17  1  0      
 11 17  1  0      
 17 18  1  0      
 13 19  1  0      
 19 20  1  0      
 19 21  1  0      
 21 22  1  0      
 22 23  1  0      
 23 24  2  0      
 23 25  1  0      
 25 26  1  0      
 19 26  1  0      
 26 27  1  0      
 27 28  1  0      
 12 28  1  0      
 28 29  2  0      
M  END
>  <Bioactivity>
Dehydrocholic acid is a synthetic bile acid, manufactured by the oxidation of cholic acid.

>  <CAS>
81-23-2

>  <Col>
4

>  <Formula>
C24H34O5

>  <ID>
T0408

>  <Index>
33

>  <MOLENAME>
Dehydrocholic acid

>  <MolWt>
402.52

>  <Pathways>
Metabolism

>  <Plate>
PLATE 001

>  <QR code>
1152410909

>  <Receptor>
Others

>  <Reference>
1. Mohamed AA, Matijevi? E. J Colloid Interface Sci. 2012 Feb 15;368(1):625-8.

>  <Row>
D

>  <SMILES>
CC(CCC(O)=O)C1CCC2C3C(CC(=O)C12C)C1(C)CCC(=O)CC1CC3=O

>  <Target>
Lipid

>  <Weight>
10.1mg

$$$$
Lab-1.sdf
  ChemDraw05232018482D

 30 31  0  0  0  0  0  0  0  0999 V2000
   -5.4652    0.6898    0.0000 Cl  0  0  0  0  0  0  0  0  0  0  0  0
   -2.3937   -2.6812    0.0000 C   0  0  0  0  0  0  0  0  0  0  0  0
   -1.6793   -2.2687    0.0000 C   0  0  0  0  0  0  0  0  0  0  0  0
   -1.6793   -1.4437    0.0000 O   0  0  0  0  0  0  0  0  0  0  0  0
   -0.9648   -1.0312    0.0000 C   0  0  0  0  0  0  0  0  0  0  0  0
   -0.9648   -0.2062    0.0000 C   0  0  0  0  0  0  0  0  0  0  0  0
   -1.6793    0.2062    0.0000 O   0  0  0  0  0  0  0  0  0  0  0  0
   -2.3937   -0.2062    0.0000 C   0  0  0  0  0  0  0  0  0  0  0  0
   -3.1082    0.2062    0.0000 C   0  0  0  0  0  0  0  0  0  0  0  0
   -0.2504    0.2062    0.0000 C   0  0  0  0  0  0  0  0  0  0  0  0
    0.4641   -0.2062    0.0000 C   0  0  0  0  0  0  0  0  0  0  0  0
    1.1786    0.2062    0.0000 C   0  0  0  0  0  0  0  0  0  0  0  0
    1.1786    1.0312    0.0000 C   0  0  0  0  0  0  0  0  0  0  0  0
    0.4641    1.4437    0.0000 N   0  0  0  0  0  0  0  0  0  0  0  0
    0.4641    2.2687    0.0000 C   0  0  0  0  0  0  0  0  0  0  0  0
    1.1786    2.6812    0.0000 C   0  0  0  0  0  0  0  0  0  0  0  0
    1.8929    2.2687    0.0000 C   0  0  0  0  0  0  0  0  0  0  0  0
    2.6074    2.6812    0.0000 C   0  0  0  0  0  0  0  0  0  0  0  0
    3.3219    2.2687    0.0000 C   0  0  0  0  0  0  0  0  0  0  0  0
    4.0364    2.6812    0.0000 O   0  0  0  0  0  0  0  0  0  0  0  0
    4.7508    2.2687    0.0000 C   0  0  0  0  0  0  0  0  0  0  0  0
    5.4652    2.6812    0.0000 C   0  0  0  0  0  0  0  0  0  0  0  0
    3.3219    1.4437    0.0000 C   0  0  0  0  0  0  0  0  0  0  0  0
    4.0364    1.0312    0.0000 O   0  0  0  0  0  0  0  0  0  0  0  0
    4.7508    1.4437    0.0000 C   0  0  0  0  0  0  0  0  0  0  0  0
    5.4652    1.0312    0.0000 C   0  0  0  0  0  0  0  0  0  0  0  0
    2.6074    1.0312    0.0000 C   0  0  0  0  0  0  0  0  0  0  0  0
    1.8929    1.4437    0.0000 C   0  0  0  0  0  0  0  0  0  0  0  0
    0.4641   -1.0312    0.0000 C   0  0  0  0  0  0  0  0  0  0  0  0
   -0.2504   -1.4437    0.0000 C   0  0  0  0  0  0  0  0  0  0  0  0
  2  3  1  0      
  3  4  1  0      
  4  5  1  0      
  5  6  2  0      
  6  7  1  0      
  7  8  1  0      
  8  9  1  0      
  6 10  1  0      
 10 11  2  0      
 11 12  1  0      
 12 13  1  0      
 13 14  2  0      
 14 15  1  0      
 15 16  2  0      
 16 17  1  0      
 17 18  2  0      
 18 19  1  0      
 19 20  1  0      
 20 21  1  0      
 21 22  1  0      
 19 23  2  0      
 23 24  1  0      
 24 25  1  0      
 25 26  1  0      
 23 27  1  0      
 27 28  2  0      
 13 28  1  0      
 17 28  1  0      
 11 29  1  0      
 29 30  2  0      
  5 30  1  0      
M  END
>  <Bioactivity>
Ethaverine, a homologue of papaverine, has inhibitory effects  on monoamine oxidase activity in mouse brain. [1]

>  <CAS>
985-13-7

>  <Col>
5

>  <Formula>
C24H30CINO4

>  <ID>
T0369

>  <Index>
34

>  <MOLENAME>
Ethaverine hydrochloride

>  <MolWt>
431.96

>  <Pathways>
Enzyme

>  <Plate>
PLATE 001

>  <QR code>
1152410910

>  <Receptor>
MAO

>  <Reference>
1. Lee SS, et al. Biol Pharm Bull. 2001 Jul;24(7):838-40.

>  <Row>
D

>  <SMILES>
Cl.CCOC1=C(OCC)C=C(CC2=NC=CC3=CC(OCC)=C(OCC)C=C23)C=C1

>  <Target>
MAO inhibitor

>  <Weight>
10.3mg

$$$$
Lab-1.sdf
  ChemDraw05232018482D

 13 14  0  0  0  0  0  0  0  0999 V2000
   -1.7861   -0.8250    0.0000 C   0  0  0  0  0  0  0  0  0  0  0  0
   -1.0717   -0.4125    0.0000 C   0  0  0  0  0  0  0  0  0  0  0  0
   -1.0717    0.4125    0.0000 C   0  0  0  0  0  0  0  0  0  0  0  0
   -0.3573    0.8250    0.0000 C   0  0  0  0  0  0  0  0  0  0  0  0
   -0.3573    1.6500    0.0000 O   0  0  0  0  0  0  0  0  0  0  0  0
    0.3572    0.4125    0.0000 C   0  0  0  0  0  0  0  0  0  0  0  0
    1.0717    0.8250    0.0000 C   0  0  0  0  0  0  0  0  0  0  0  0
    1.7861    0.4125    0.0000 C   0  0  0  0  0  0  0  0  0  0  0  0
    1.7861   -0.4125    0.0000 C   0  0  0  0  0  0  0  0  0  0  0  0
    1.0717   -0.8250    0.0000 C   0  0  0  0  0  0  0  0  0  0  0  0
    0.3572   -0.4125    0.0000 C   0  0  0  0  0  0  0  0  0  0  0  0
   -0.3573   -0.8250    0.0000 C   0  0  0  0  0  0  0  0  0  0  0  0
   -0.3573   -1.6500    0.0000 O   0  0  0  0  0  0  0  0  0  0  0  0
  1  2  1  0      
  2  3  2  0      
  3  4  1  0      
  4  5  2  0      
  4  6  1  0      
  6  7  2  0      
  7  8  1  0      
  8  9  2  0      
  9 10  1  0      
 10 11  2  0      
  6 11  1  0      
 11 12  1  0      
  2 12  1  0      
 12 13  2  0      
M  END
>  <Bioactivity>
Menadione, a synthetic naphthoquinone, can be converted to active vitamin K2 in vivo. 

>  <CAS>
58-27-5

>  <Col>
6

>  <Formula>
C11H8O2

>  <ID>
T0449

>  <Index>
35

>  <MOLENAME>
Menadione

>  <MolWt>
172.18

>  <Pathways>
Angiogenesis; Vitamin

>  <Plate>
PLATE 001

>  <QR code>
1152410911

>  <Receptor>
Prothrombin; VK

>  <Reference>
1. Wang Z, et al. Hepatology. 1995 Sep; 22(3):876-82. 

>  <Row>
D

>  <SMILES>
CC1=CC(=O)C2=CC=CC=C2C1=O

>  <Target>
Prothrombin activator; VK

>  <Weight>
10.3mg

$$$$
Lab-1.sdf
  ChemDraw05232018482D

 15 16  0  0  0  0  0  0  0  0999 V2000
    0.3797   -0.5747    0.0000 N   0  0  0  0  0  0  0  0  0  0  0  0
   -0.4273   -0.7462    0.0000 C   0  0  0  0  0  0  0  0  0  0  0  0
   -0.9793   -0.1331    0.0000 C   0  0  0  0  0  0  0  0  0  0  0  0
   -0.7244    0.6515    0.0000 C   0  0  0  0  0  0  0  0  0  0  0  0
   -1.2093    1.3190    0.0000 C   0  0  0  0  0  0  0  0  0  0  0  0
   -0.7244    1.9864    0.0000 N   0  0  0  0  0  0  0  0  0  0  0  0
    0.0602    1.7315    0.0000 C   0  0  0  0  0  0  0  0  0  0  0  0
    0.7747    2.1439    0.0000 C   0  0  0  0  0  0  0  0  0  0  0  0
    1.4892    1.7315    0.0000 C   0  0  0  0  0  0  0  0  0  0  0  0
    1.4892    0.9065    0.0000 C   0  0  0  0  0  0  0  0  0  0  0  0
    0.7747    0.4940    0.0000 C   0  0  0  0  0  0  0  0  0  0  0  0
    0.0602    0.9065    0.0000 C   0  0  0  0  0  0  0  0  0  0  0  0
   -0.6822   -1.5308    0.0000 C   0  0  0  0  0  0  0  0  0  0  0  0
   -0.1302   -2.1439    0.0000 O   0  0  0  0  0  0  0  0  0  0  0  0
   -1.4892   -1.7023    0.0000 O   0  0  0  0  0  0  0  0  0  0  0  0
  1  2  1  0      
  2  3  1  0      
  3  4  1  0      
  4  5  2  0      
  5  6  1  0      
  6  7  1  0      
  7  8  2  0      
  8  9  1  0      
  9 10  2  0      
 10 11  1  0      
 11 12  2  0      
  4 12  1  0      
  7 12  1  0      
  2 13  1  0      
 13 14  1  0      
 13 15  2  0      
M  END
>  <Bioactivity>
An essential amino acid that is necessary for normal growth in infants and for NITROGEN balance in adults. It is a precursor of INDOLE ALKALOIDS in plants. It is a precursor of SEROTONIN (hence its us
e as an antidepressant and sleep aid). It can be a precursor to NIACIN, albeit inefficiently, in mammals. 

>  <CAS>
73-22-3

>  <Col>
7

>  <Formula>
C11H12N2O2

>  <ID>
T0439

>  <Index>
36

>  <MOLENAME>
L-Tryptophan

>  <MolWt>
204.23

>  <Pathways>
Amino Acids & Building Blocks

>  <Plate>
PLATE 001

>  <QR code>
1152410912

>  <Receptor>
Amino Acids and Derivatives

>  <Reference>
1. Tsuchiya W, et al. Nucleic Acids Symp Ser (Oxf). 2004;(48):185-6. 

>  <Row>
D

>  <SMILES>
NC(CC1=CNC2=CC=CC=C12)C(O)=O

>  <Target>
Amino Acids and Derivatives

>  <Weight>
9.8mg

$$$$
Lab-1.sdf
  ChemDraw05232018482D

 12 11  0  0  0  0  0  0  0  0999 V2000
   -1.0718   -1.0312    0.0000 N   0  0  0  0  0  0  0  0  0  0  0  0
   -1.0718   -0.2062    0.0000 C   0  0  0  0  0  0  0  0  0  0  0  0
   -1.7862    0.2063    0.0000 C   0  0  0  0  0  0  0  0  0  0  0  0
   -2.5006   -0.2062    0.0000 O   0  0  0  0  0  0  0  0  0  0  0  0
   -0.3572    0.2063    0.0000 C   0  0  0  0  0  0  0  0  0  0  0  0
   -0.3572    1.0312    0.0000 O   0  0  0  0  0  0  0  0  0  0  0  0
    0.3571   -0.2062    0.0000 C   0  0  0  0  0  0  0  0  0  0  0  0
    0.3571   -1.0312    0.0000 O   0  0  0  0  0  0  0  0  0  0  0  0
    1.0716    0.2063    0.0000 C   0  0  0  0  0  0  0  0  0  0  0  0
    1.0716    1.0312    0.0000 O   0  0  0  0  0  0  0  0  0  0  0  0
    1.7861   -0.2062    0.0000 C   0  0  0  0  0  0  0  0  0  0  0  0
    2.5006    0.2063    0.0000 O   0  0  0  0  0  0  0  0  0  0  0  0
  1  2  1  0      
  2  3  1  0      
  3  4  2  0      
  2  5  1  0      
  5  6  1  0      
  5  7  1  0      
  7  8  1  0      
  7  9  1  0      
  9 10  1  0      
  9 11  1  0      
 11 12  1  0      
M  END
>  <Bioactivity>
Glucosamine is commonly used as a treatment for osteoarthritis, although its acceptance as a medical therapy varies. It is an amino sugar and a prominent precursor in the biochemical synthesis of glyc
osylated proteins and lipids. Since glucosamine is a precursor for glycosaminoglycans, and glycosaminoglycans are a major component of joint cartilage, supplemental glucosamine may help to rebuild car
tilage and treat arthritis.  

>  <CAS>
3416-24-8

>  <Col>
8

>  <Formula>
C6H13NO5

>  <ID>
T0429

>  <Index>
37

>  <MOLENAME>
Glucosamine

>  <MolWt>
179.17

>  <Pathways>
Proteases/Proteasome; Immunology/Inflammation

>  <Plate>
PLATE 001

>  <QR code>
1152410913

>  <Receptor>
MMP 9; NF-¦ÊB p100; IF¦Ã; Chitosanase; TNF

>  <Reference>
1. Fenton JI, et al. Equine Vet J Suppl. 2002 Sep;(34):219-23. 

>  <Row>
D

>  <SMILES>
NC(C=O)C(O)C(O)C(O)CO

>  <Target>
MMP antagonist; NF-¦ÊB inhibitor; IF inhibitor; Chitosanase; TNF inhibitor

>  <Weight>
10mg

$$$$
Lab-1.sdf
  ChemDraw05232018482D

 25 28  0  0  0  0  0  0  0  0999 V2000
   -4.1723   -1.3899    0.0000 C   0  0  0  0  0  0  0  0  0  0  0  0
   -3.3551   -1.5027    0.0000 C   0  0  0  0  0  0  0  0  0  0  0  0
   -2.8487   -0.8514    0.0000 C   0  0  0  0  0  0  0  0  0  0  0  0
   -3.1596   -0.0872    0.0000 O   0  0  0  0  0  0  0  0  0  0  0  0
   -2.0314   -0.9642    0.0000 O   0  0  0  0  0  0  0  0  0  0  0  0
   -1.5250   -0.3129    0.0000 C   0  0  0  0  0  0  0  0  0  0  0  0
   -1.7543    0.4797    0.0000 C   0  0  0  0  0  0  0  0  0  0  0  0
   -1.0715    0.9427    0.0000 C   0  0  0  0  0  0  0  0  0  0  0  0
   -0.4202    0.4363    0.0000 C   0  0  0  0  0  0  0  0  0  0  0  0
    0.3920    0.5815    0.0000 C   0  0  0  0  0  0  0  0  0  0  0  0
    0.6722    1.3575    0.0000 C   0  0  0  0  0  0  0  0  0  0  0  0
    1.4844    1.5027    0.0000 C   0  0  0  0  0  0  0  0  0  0  0  0
    2.0162    0.8720    0.0000 C   0  0  0  0  0  0  0  0  0  0  0  0
    2.8284    1.0172    0.0000 C   0  0  0  0  0  0  0  0  0  0  0  0
    3.3602    0.3865    0.0000 C   0  0  0  0  0  0  0  0  0  0  0  0
    4.1723    0.5317    0.0000 O   0  0  0  0  0  0  0  0  0  0  0  0
    3.0799   -0.3896    0.0000 C   0  0  0  0  0  0  0  0  0  0  0  0
    2.2678   -0.5348    0.0000 C   0  0  0  0  0  0  0  0  0  0  0  0
    1.7359    0.0960    0.0000 C   0  0  0  0  0  0  0  0  0  0  0  0
    1.4556   -0.6800    0.0000 C   0  0  0  0  0  0  0  0  0  0  0  0
    0.9238   -0.0493    0.0000 C   0  0  0  0  0  0  0  0  0  0  0  0
    0.6435   -0.8252    0.0000 C   0  0  0  0  0  0  0  0  0  0  0  0
   -0.1686   -0.9704    0.0000 C   0  0  0  0  0  0  0  0  0  0  0  0
   -0.7005   -0.3397    0.0000 C   0  0  0  0  0  0  0  0  0  0  0  0
   -1.0603   -1.0821    0.0000 C   0  0  0  0  0  0  0  0  0  0  0  0
  1  2  1  0      
  2  3  1  0      
  3  4  2  0      
  3  5  1  0      
  5  6  1  0      
  6  7  1  0      
  7  8  1  0      
  8  9  1  0      
  9 10  1  0      
 10 11  1  0      
 11 12  1  0      
 12 13  1  0      
 13 14  2  0      
 14 15  1  0      
 15 16  2  0      
 15 17  1  0      
 17 18  1  0      
 18 19  1  0      
 13 19  1  0      
 19 20  1  0      
 19 21  1  0      
 10 21  1  0      
 21 22  1  0      
 22 23  1  0      
 23 24  1  0      
  6 24  1  0      
  9 24  1  0      
 24 25  1  0      
M  END
>  <Bioactivity>
Testosterone Propionate is an efficient androgenic hormone for the treatment of low testosterone.

>  <CAS>
57-85-2

>  <Col>
9

>  <Formula>
C22H32O3

>  <ID>
T0419

>  <Index>
38

>  <MOLENAME>
Testosterone propionate

>  <MolWt>
344.49

>  <Pathways>
Endocrinology/ Hormones

>  <Plate>
PLATE 001

>  <QR code>
1152410914

>  <Receptor>
Androgens receptor; COMT

>  <Reference>
1. Small EJ, Ryan CJ. J Urol. 2006 Dec; 176(6 Pt 2):S66-71.

>  <Row>
D

>  <SMILES>
CCC(=O)OC1CCC2C3CCC4=CC(=O)CCC4(C)C3CCC12C

>  <Target>
Androgens receptor agonist; COMT inhibitor

>  <Weight>
10.2mg

$$$$
Lab-1.sdf
  ChemDraw05232018482D

 12 12  0  0  0  0  0  0  0  0999 V2000
    0.0000    1.6500    0.0000 O   0  0  0  0  0  0  0  0  0  0  0  0
    0.0000    0.8250    0.0000 C   0  0  0  0  0  0  0  0  0  0  0  0
    0.7144    0.4125    0.0000 C   0  0  0  0  0  0  0  0  0  0  0  0
    1.4289    0.8250    0.0000 O   0  0  0  0  0  0  0  0  0  0  0  0
    0.7144   -0.4125    0.0000 C   0  0  0  0  0  0  0  0  0  0  0  0
    1.4289   -0.8250    0.0000 O   0  0  0  0  0  0  0  0  0  0  0  0
    0.0000   -0.8250    0.0000 C   0  0  0  0  0  0  0  0  0  0  0  0
    0.0000   -1.6500    0.0000 O   0  0  0  0  0  0  0  0  0  0  0  0
   -0.7144   -0.4125    0.0000 C   0  0  0  0  0  0  0  0  0  0  0  0
   -1.4289   -0.8250    0.0000 O   0  0  0  0  0  0  0  0  0  0  0  0
   -0.7144    0.4125    0.0000 C   0  0  0  0  0  0  0  0  0  0  0  0
   -1.4289    0.8250    0.0000 O   0  0  0  0  0  0  0  0  0  0  0  0
  1  2  1  0      
  2  3  1  0      
  3  4  1  0      
  3  5  1  0      
  5  6  1  0      
  5  7  1  0      
  7  8  1  0      
  7  9  1  0      
  9 10  1  0      
  9 11  1  0      
  2 11  1  0      
 11 12  1  0      
M  END
>  <Bioactivity>
i-Inositol is a chemical compound, associated lipids are found in many foods, in particular fruit, especially cantaloupe and oranges.

>  <CAS>
87-89-8

>  <Col>
10

>  <Formula>
C6H12O6

>  <ID>
T0421

>  <Index>
39

>  <MOLENAME>
Inositol

>  <MolWt>
180.16

>  <Pathways>
Vitamin

>  <Plate>
PLATE 001

>  <QR code>
1152410915

>  <Receptor>
VB

>  <Reference>
1. Chen X, et al. Nucleic Acids Res. 2002 Jan 1; 30(1):412-5. 

>  <Row>
D

>  <SMILES>
OC1C(O)C(O)C(O)C(O)C1O

>  <Target>
VB

>  <Weight>
10.3mg

$$$$
Lab-1.sdf
  ChemDraw05232018482D

 26 29  0  0  0  0  0  0  0  0999 V2000
   -4.9281   -0.1550    0.0000 Cl  0  5  0  0  0  0  0  0  0  0  0  0
    4.9281   -1.3975    0.0000 C   0  0  0  0  0  0  0  0  0  0  0  0
    4.5048   -0.6894    0.0000 O   0  0  0  0  0  0  0  0  0  0  0  0
    3.6799   -0.7019    0.0000 C   0  0  0  0  0  0  0  0  0  0  0  0
    3.2566    0.0063    0.0000 C   0  0  0  0  0  0  0  0  0  0  0  0
    3.6582    0.7270    0.0000 O   0  0  0  0  0  0  0  0  0  0  0  0
    3.2349    1.4351    0.0000 C   0  0  0  0  0  0  0  0  0  0  0  0
    2.4317   -0.0063    0.0000 C   0  0  0  0  0  0  0  0  0  0  0  0
    2.0084    0.7019    0.0000 C   0  0  0  0  0  0  0  0  0  0  0  0
    1.1835    0.6893    0.0000 N   0  3  0  0  0  0  0  0  0  0  0  0
    0.7819   -0.0313    0.0000 C   0  0  0  0  0  0  0  0  0  0  0  0
    1.2052   -0.7396    0.0000 C   0  0  0  0  0  0  0  0  0  0  0  0
    2.0301   -0.7270    0.0000 C   0  0  0  0  0  0  0  0  0  0  0  0
    2.4534   -1.4351    0.0000 C   0  0  0  0  0  0  0  0  0  0  0  0
    3.2783   -1.4226    0.0000 C   0  0  0  0  0  0  0  0  0  0  0  0
   -0.0431   -0.0440    0.0000 C   0  0  0  0  0  0  0  0  0  0  0  0
   -0.4447   -0.7647    0.0000 C   0  0  0  0  0  0  0  0  0  0  0  0
   -1.2696   -0.7772    0.0000 C   0  0  0  0  0  0  0  0  0  0  0  0
   -1.6929   -0.0691    0.0000 C   0  0  0  0  0  0  0  0  0  0  0  0
   -2.4972   -0.2529    0.0000 O   0  0  0  0  0  0  0  0  0  0  0  0
   -2.5710   -1.0746    0.0000 C   0  0  0  0  0  0  0  0  0  0  0  0
   -1.8123   -1.3986    0.0000 O   0  0  0  0  0  0  0  0  0  0  0  0
   -1.2914    0.6517    0.0000 C   0  0  0  0  0  0  0  0  0  0  0  0
   -0.4664    0.6642    0.0000 C   0  0  0  0  0  0  0  0  0  0  0  0
   -0.0649    1.3849    0.0000 C   0  0  0  0  0  0  0  0  0  0  0  0
    0.7601    1.3974    0.0000 C   0  0  0  0  0  0  0  0  0  0  0  0
  2  3  1  0      
  3  4  1  0      
  4  5  2  0      
  5  6  1  0      
  6  7  1  0      
  5  8  1  0      
  8  9  2  0      
  9 10  1  0      
 10 11  2  0      
 11 12  1  0      
 12 13  2  0      
  8 13  1  0      
 13 14  1  0      
 14 15  2  0      
  4 15  1  0      
 11 16  1  0      
 16 17  2  0      
 17 18  1  0      
 18 19  2  0      
 19 20  1  0      
 20 21  1  0      
 21 22  1  0      
 18 22  1  0      
 19 23  1  0      
 23 24  2  0      
 16 24  1  0      
 24 25  1  0      
 25 26  1  0      
 10 26  1  0      
M  CHG  2   1  -1  10   1
M  END
>  <Bioactivity>
An alkaloid from Hydrastis canadensis L., Berberidaceae. It is also found in many other plants. It is relatively toxic parenterally, but has been used orally for various parasitic and fungal infection
s and as antidiarrheal. 

>  <CAS>
633-65-8

>  <Col>
11

>  <Formula>
C20H18ClNO4

>  <ID>
T0461

>  <Index>
40

>  <MOLENAME>
Berberine hydrochloride

>  <MolWt>
371.8

>  <Pathways>
Microbiology & Virology

>  <Plate>
PLATE 001

>  <QR code>
1152410916

>  <Receptor>
Others

>  <Reference>
1. Zhang Y, et al. J Pharmacol Exp Ther. 2014 Jun; 349(3):417-26.

>  <Row>
D

>  <SMILES>
[Cl-].COC1=C(OC)C2=C[N+]3=C(C=C2C=C1)C1=CC2=C(OCO2)C=C1CC3

>  <Target>
Antibiotic

>  <Weight>
10.4mg

$$$$
Lab-1.sdf
  ChemDraw05232018482D

 20 21  0  0  0  0  0  0  0  0999 V2000
    1.4289    2.6812    0.0000 O   0  0  0  0  0  0  0  0  0  0  0  0
    0.7144    2.2687    0.0000 C   0  0  0  0  0  0  0  0  0  0  0  0
    0.7144    1.4437    0.0000 C   0  0  0  0  0  0  0  0  0  0  0  0
    0.0001    1.0312    0.0000 O   0  0  0  0  0  0  0  0  0  0  0  0
    0.0001    0.2062    0.0000 C   0  0  0  0  0  0  0  0  0  0  0  0
   -0.7144   -0.2062    0.0000 O   0  0  0  0  0  0  0  0  0  0  0  0
   -0.7144   -1.0312    0.0000 C   0  0  0  0  0  0  0  0  0  0  0  0
    0.0001   -1.4437    0.0000 C   0  0  0  0  0  0  0  0  0  0  0  0
    0.0001   -2.2687    0.0000 C   0  0  0  0  0  0  0  0  0  0  0  0
   -0.7144   -2.6812    0.0000 C   0  0  0  0  0  0  0  0  0  0  0  0
   -1.4289   -2.2687    0.0000 C   0  0  0  0  0  0  0  0  0  0  0  0
   -1.4289   -1.4437    0.0000 C   0  0  0  0  0  0  0  0  0  0  0  0
   -2.1434   -1.0312    0.0000 C   0  0  0  0  0  0  0  0  0  0  0  0
   -2.1434   -0.2062    0.0000 O   0  0  0  0  0  0  0  0  0  0  0  0
    0.7144   -0.2062    0.0000 C   0  0  0  0  0  0  0  0  0  0  0  0
    0.7144   -1.0312    0.0000 O   0  0  0  0  0  0  0  0  0  0  0  0
    1.4289    0.2062    0.0000 C   0  0  0  0  0  0  0  0  0  0  0  0
    2.1434   -0.2062    0.0000 O   0  0  0  0  0  0  0  0  0  0  0  0
    1.4289    1.0312    0.0000 C   0  0  0  0  0  0  0  0  0  0  0  0
    2.1434    1.4437    0.0000 O   0  0  0  0  0  0  0  0  0  0  0  0
  1  2  1  0      
  2  3  1  0      
  3  4  1  0      
  4  5  1  0      
  5  6  1  0      
  6  7  1  0      
  7  8  2  0      
  8  9  1  0      
  9 10  2  0      
 10 11  1  0      
 11 12  2  0      
  7 12  1  0      
 12 13  1  0      
 13 14  1  0      
  5 15  1  0      
 15 16  1  0      
 15 17  1  0      
 17 18  1  0      
 17 19  1  0      
  3 19  1  0      
 19 20  1  0      
M  END
>  <Bioactivity>
Salicin is a phenol ¦Â-glycosid produced from willow bark that shows anti-inflammatory effects.

>  <CAS>
138-52-3

>  <Col>
2

>  <Formula>
C13H18O7

>  <ID>
T0443

>  <Index>
41

>  <MOLENAME>
Salicoside

>  <MolWt>
286.28

>  <Pathways>
Neuronal Signaling

>  <Plate>
PLATE 001

>  <QR code>
1152410904

>  <Receptor>
Prostaglandin G/H synthase

>  <Reference>
1. Wei W, et al. J Asian Nat Prod Res. 2015 Apr 23:1-6. 

>  <Row>
E

>  <SMILES>
OCC1OC(OC2=CC=CC=C2CO)C(O)C(O)C1O

>  <Target>
COX inhibitor

>  <Weight>
10.5mg

$$$$
Lab-1.sdf
  ChemDraw05232018482D

 27 30  0  0  0  0  0  0  0  0999 V2000
    3.0517   -1.6716    0.0000 C   0  0  0  0  0  0  0  0  0  0  0  0
    2.3764   -1.2257    0.0000 C   0  0  0  0  0  0  0  0  0  0  0  0
    1.6710   -1.6485    0.0000 C   0  0  0  0  0  0  0  0  0  0  0  0
    1.1183   -1.0409    0.0000 C   0  0  0  0  0  0  0  0  0  0  0  0
    1.2126   -0.2024    0.0000 C   0  0  0  0  0  0  0  0  0  0  0  0
    0.3959    0.0258    0.0000 C   0  0  0  0  0  0  0  0  0  0  0  0
   -0.1535   -0.5681    0.0000 C   0  0  0  0  0  0  0  0  0  0  0  0
    0.1129    0.8008    0.0000 C   0  0  0  0  0  0  0  0  0  0  0  0
   -0.6546    1.0572    0.0000 O   0  0  0  0  0  0  0  0  0  0  0  0
   -1.2604    0.5208    0.0000 C   0  0  0  0  0  0  0  0  0  0  0  0
   -1.0988   -0.2720    0.0000 O   0  0  0  0  0  0  0  0  0  0  0  0
   -2.0278    0.7773    0.0000 C   0  0  0  0  0  0  0  0  0  0  0  0
   -2.6337    0.2408    0.0000 C   0  0  0  0  0  0  0  0  0  0  0  0
   -3.4012    0.4973    0.0000 C   0  0  0  0  0  0  0  0  0  0  0  0
   -4.0069   -0.0392    0.0000 O   0  0  0  0  0  0  0  0  0  0  0  0
   -3.5628    1.2901    0.0000 O   0  0  0  0  0  0  0  0  0  0  0  0
    0.8045    1.2496    0.0000 O   0  0  0  0  0  0  0  0  0  0  0  0
    1.6038    0.9842    0.0000 C   0  0  0  0  0  0  0  0  0  0  0  0
    2.5185    0.7677    0.0000 O   0  0  0  0  0  0  0  0  0  0  0  0
    3.3347    0.9766    0.0000 C   0  0  0  0  0  0  0  0  0  0  0  0
    4.0069    1.4269    0.0000 C   0  0  0  0  0  0  0  0  0  0  0  0
    3.8111    0.2921    0.0000 C   0  0  0  0  0  0  0  0  0  0  0  0
    3.3316   -0.3837    0.0000 C   0  0  0  0  0  0  0  0  0  0  0  0
    2.4907   -0.3946    0.0000 C   0  0  0  0  0  0  0  0  0  0  0  0
    1.9407    0.2874    0.0000 C   0  0  0  0  0  0  0  0  0  0  0  0
    2.1747    1.2201    0.0000 O   0  0  0  0  0  0  0  0  0  0  0  0
    2.8870    1.6716    0.0000 O   0  0  0  0  0  0  0  0  0  0  0  0
  1  2  1  0      
  2  3  1  0      
  3  4  1  0      
  4  5  1  0      
  5  6  1  0      
  6  7  1  0      
  6  8  1  0      
  8  9  1  0      
  9 10  1  0      
 10 11  2  0      
 10 12  1  0      
 12 13  1  0      
 13 14  1  0      
 14 15  1  0      
 14 16  2  0      
  8 17  1  0      
 17 18  1  0      
 18 19  1  0      
 19 20  1  0      
 20 21  1  0      
 20 22  1  0      
 22 23  1  0      
 23 24  1  0      
  2 24  1  0      
 24 25  1  0      
  5 25  1  0      
 18 25  1  0      
 25 26  1  0      
 26 27  1  0      
 20 27  1  0      
M  END
>  <Bioactivity>
Artesunate is a part of the artemisinin group of agents with an IC50 of < 5 ¦ÌM for small cell lung carcinoma cell line H69. Artesunate is a semi-synthetic derivative of artemisinin that is water-solu
ble and may therefore be given by injection. Artesunate is used primarily as treatment for malaria; but artesunate has also been shown to be >90% efficacious at reducing egg production in Schistosoma 
haematobium infection.

>  <CAS>
88495-63-0

>  <Col>
3

>  <Formula>
C19H28O8

>  <ID>
T0433

>  <Index>
42

>  <MOLENAME>
Artesunate

>  <MolWt>
384.42

>  <Pathways>
JAK/STAT

>  <Plate>
PLATE 001

>  <QR code>
1152410903

>  <Receptor>
STAT

>  <Reference>
1. Cui C, et al. Int Immunopharmacol. 2015 Jul;27(1):110-21. 

>  <Row>
E

>  <SMILES>
CC1CCC2C(C)C(OC(=O)CCC(O)=O)OC3OC4(C)CCC1C23OO4

>  <Target>
STAT inhibitor?

>  <Weight>
10.2mg

$$$$
Lab-1.sdf
  ChemDraw05232018482D

 12 11  0  0  0  0  0  0  0  0999 V2000
   -2.5006   -0.2062    0.0000 O   0  0  0  0  0  0  0  0  0  0  0  0
   -1.7862    0.2063    0.0000 C   0  0  0  0  0  0  0  0  0  0  0  0
   -1.0718   -0.2062    0.0000 C   0  0  0  0  0  0  0  0  0  0  0  0
   -1.0718   -1.0312    0.0000 O   0  0  0  0  0  0  0  0  0  0  0  0
   -0.3573    0.2063    0.0000 C   0  0  0  0  0  0  0  0  0  0  0  0
   -0.3573    1.0312    0.0000 O   0  0  0  0  0  0  0  0  0  0  0  0
    0.3571   -0.2062    0.0000 C   0  0  0  0  0  0  0  0  0  0  0  0
    0.3571   -1.0312    0.0000 O   0  0  0  0  0  0  0  0  0  0  0  0
    1.0716    0.2063    0.0000 C   0  0  0  0  0  0  0  0  0  0  0  0
    1.0716    1.0312    0.0000 O   0  0  0  0  0  0  0  0  0  0  0  0
    1.7861   -0.2062    0.0000 C   0  0  0  0  0  0  0  0  0  0  0  0
    2.5006    0.2063    0.0000 O   0  0  0  0  0  0  0  0  0  0  0  0
  1  2  1  0      
  2  3  1  0      
  3  4  1  0      
  3  5  1  0      
  5  6  1  0      
  5  7  1  0      
  7  8  1  0      
  7  9  1  0      
  9 10  1  0      
  9 11  1  0      
 11 12  1  0      
M  END
>  <Bioactivity>
D-Mannitol is an osmotic diuretic agent and a weak renal vasodilator.

>  <CAS>
69-65-8

>  <Col>
4

>  <Formula>
C6H14O6

>  <ID>
T0414

>  <Index>
43

>  <MOLENAME>
D-Mannitol

>  <MolWt>
182.17

>  <Pathways>
Metabolism

>  <Plate>
PLATE 001

>  <QR code>
1152410902

>  <Receptor>
MDH

>  <Reference>
1. Wang YM, van Eys J. Annu Rev Nutr. 1981; 1:437-75.

>  <Row>
E

>  <SMILES>
OCC(O)C(O)C(O)C(O)CO

>  <Target>
Dehydrogenase substrate

>  <Weight>
10.3mg

$$$$
Lab-1.sdf
  ChemDraw05232018482D

 22 25  0  0  0  0  0  0  0  0999 V2000
    2.8875   -0.0000    0.0000 O   0  0  0  0  0  0  0  0  0  0  0  0
    2.0625   -0.0000    0.0000 C   0  0  0  0  0  0  0  0  0  0  0  0
    1.6500    0.7145    0.0000 C   0  0  0  0  0  0  0  0  0  0  0  0
    2.0625    1.4289    0.0000 O   0  0  0  0  0  0  0  0  0  0  0  0
    0.8250    0.7145    0.0000 C   0  0  0  0  0  0  0  0  0  0  0  0
    0.4125   -0.0000    0.0000 C   0  0  0  0  0  0  0  0  0  0  0  0
    0.8250   -0.7145    0.0000 C   0  0  0  0  0  0  0  0  0  0  0  0
    1.6500   -0.7145    0.0000 C   0  0  0  0  0  0  0  0  0  0  0  0
    0.4125   -1.4289    0.0000 C   0  0  0  0  0  0  0  0  0  0  0  0
    0.8250   -2.1434    0.0000 O   0  0  0  0  0  0  0  0  0  0  0  0
   -0.4125   -1.4289    0.0000 O   0  0  0  0  0  0  0  0  0  0  0  0
   -0.8250   -0.7145    0.0000 C   0  0  0  0  0  0  0  0  0  0  0  0
   -0.4125   -0.0000    0.0000 C   0  0  0  0  0  0  0  0  0  0  0  0
   -0.8250    0.7145    0.0000 C   0  0  0  0  0  0  0  0  0  0  0  0
   -1.6500    0.7145    0.0000 C   0  0  0  0  0  0  0  0  0  0  0  0
   -2.0625   -0.0000    0.0000 C   0  0  0  0  0  0  0  0  0  0  0  0
   -2.8875   -0.0000    0.0000 O   0  0  0  0  0  0  0  0  0  0  0  0
   -1.6500   -0.7145    0.0000 C   0  0  0  0  0  0  0  0  0  0  0  0
   -2.0625   -1.4289    0.0000 O   0  0  0  0  0  0  0  0  0  0  0  0
   -0.4125    1.4289    0.0000 C   0  0  0  0  0  0  0  0  0  0  0  0
   -0.8250    2.1434    0.0000 O   0  0  0  0  0  0  0  0  0  0  0  0
    0.4125    1.4289    0.0000 O   0  0  0  0  0  0  0  0  0  0  0  0
  1  2  1  0      
  2  3  2  0      
  3  4  1  0      
  3  5  1  0      
  5  6  2  0      
  6  7  1  0      
  7  8  2  0      
  2  8  1  0      
  7  9  1  0      
  9 10  2  0      
  9 11  1  0      
 11 12  1  0      
 12 13  2  0      
  6 13  1  0      
 13 14  1  0      
 14 15  2  0      
 15 16  1  0      
 16 17  1  0      
 16 18  2  0      
 12 18  1  0      
 18 19  1  0      
 14 20  1  0      
 20 21  2  0      
 20 22  1  0      
  5 22  1  0      
M  END
>  <Bioactivity>
Ellagic Acid is a cell permeable and strong casein kinase 2 (CK2) inhibitor (Ki = 20 nM) which acts as a potent antioxidant and anti-mutagenic. 

>  <CAS>
476-66-4

>  <Col>
5

>  <Formula>
C14H6O8

>  <ID>
T0465

>  <Index>
44

>  <MOLENAME>
Ellagic acid

>  <MolWt>
302.19

>  <Pathways>
Enzyme; Metabolism; Cell Cycle/Checkpoint

>  <Plate>
PLATE 001

>  <QR code>
1152410901

>  <Receptor>
SYK; Casein kinase II; CA; PKA; PKC; SMO

>  <Reference>
1. Sekiguchi Y, et al.  Bioorg Med Chem Lett. 2009 Jun 1;19(11):2920-3. 

>  <Row>
E

>  <SMILES>
OC1=C(O)C2=C3C(=C1)C(=O)OC1=C3C(=CC(O)=C1O)C(=O)O2

>  <Target>
Casein Kinase inhibitor; Carbonic anhydrase inhibitor; PKA inhibitor; PKC inhibitor; SMO inhibitor

>  <Weight>
10mg

$$$$
Lab-1.sdf
  ChemDraw05232018482D

 21 23  0  0  0  0  0  0  0  0999 V2000
   -0.7970    1.2227    0.0000 C   0  0  0  0  0  0  0  0  0  0  0  0
   -1.3491    1.8358    0.0000 N   0  0  0  0  0  0  0  0  0  0  0  0
   -1.0863    2.7544    0.0000 C   0  0  0  0  0  0  0  0  0  0  0  0
   -1.9021    2.6314    0.0000 C   0  0  0  0  0  0  0  0  0  0  0  0
   -2.3146    1.9169    0.0000 C   0  0  0  0  0  0  0  0  0  0  0  0
   -2.0132    1.1490    0.0000 C   0  0  0  0  0  0  0  0  0  0  0  0
   -1.2248    0.9058    0.0000 C   0  0  0  0  0  0  0  0  0  0  0  0
   -0.5432    1.3705    0.0000 C   0  0  0  0  0  0  0  0  0  0  0  0
   -0.4815    2.1932    0.0000 C   0  0  0  0  0  0  0  0  0  0  0  0
    0.1712    0.9580    0.0000 O   0  0  0  0  0  0  0  0  0  0  0  0
    0.1712    0.1330    0.0000 C   0  0  0  0  0  0  0  0  0  0  0  0
   -0.5432   -0.2794    0.0000 O   0  0  0  0  0  0  0  0  0  0  0  0
    0.8857   -0.2794    0.0000 C   0  0  0  0  0  0  0  0  0  0  0  0
    1.6001    0.1330    0.0000 C   0  0  0  0  0  0  0  0  0  0  0  0
    2.3146   -0.2794    0.0000 O   0  0  0  0  0  0  0  0  0  0  0  0
    0.8857   -1.1044    0.0000 C   0  0  0  0  0  0  0  0  0  0  0  0
    1.6001   -1.5169    0.0000 C   0  0  0  0  0  0  0  0  0  0  0  0
    1.6001   -2.3419    0.0000 C   0  0  0  0  0  0  0  0  0  0  0  0
    0.8857   -2.7544    0.0000 C   0  0  0  0  0  0  0  0  0  0  0  0
    0.1712   -2.3419    0.0000 C   0  0  0  0  0  0  0  0  0  0  0  0
    0.1712   -1.5169    0.0000 C   0  0  0  0  0  0  0  0  0  0  0  0
  1  2  1  0      
  2  3  1  0      
  3  4  1  0      
  4  5  1  0      
  5  6  1  0      
  2  6  1  0      
  6  7  1  0      
  7  8  1  0      
  8  9  1  0      
  3  9  1  0      
  8 10  1  0      
 10 11  1  0      
 11 12  2  0      
 11 13  1  0      
 13 14  1  0      
 14 15  1  0      
 13 16  1  0      
 16 17  2  0      
 17 18  1  0      
 18 19  2  0      
 19 20  1  0      
 20 21  2  0      
 16 21  1  0      
M  END
>  <Bioactivity>
Atropine is a medication used to treat certain types of nerve agent and pesticide poisonings, some types of slow heart rate, and to decrease saliva production during surgery.

>  <CAS>
51-55-8

>  <Col>
6

>  <Formula>
C17H23NO3

>  <ID>
T0375

>  <Index>
45

>  <MOLENAME>
Atropine

>  <MolWt>
289.37

>  <Pathways>
Neuroscience

>  <Plate>
PLATE 001

>  <QR code>
1152410900

>  <Receptor>
Muscarinic AChR

>  <Reference>
1. Huang XP, et al. J Pharmacol Exp Ther. 1998 Sep; 286(3):1129-39. 

>  <Row>
E

>  <SMILES>
CN1C2CCC1CC(C2)OC(=O)C(CO)C1=CC=CC=C1

>  <Target>
AChR antagonist

>  <Weight>
10.6mg

$$$$
Lab-1.sdf
  ChemDraw05232018482D

 14 12  0  0  0  0  0  0  0  0999 V2000
    2.8579    0.6188    0.0000 Na  0  3  0  0  0  0  0  0  0  0  0  0
   -2.8579   -0.2062    0.0000 O   0  0  0  0  0  0  0  0  0  0  0  0
   -2.1434    0.2063    0.0000 C   0  0  0  0  0  0  0  0  0  0  0  0
   -1.4289   -0.2062    0.0000 C   0  0  0  0  0  0  0  0  0  0  0  0
   -1.4289   -1.0312    0.0000 O   0  0  0  0  0  0  0  0  0  0  0  0
   -0.7145    0.2063    0.0000 C   0  0  0  0  0  0  0  0  0  0  0  0
   -0.7145    1.0312    0.0000 O   0  0  0  0  0  0  0  0  0  0  0  0
   -0.0000   -0.2062    0.0000 C   0  0  0  0  0  0  0  0  0  0  0  0
   -0.0000   -1.0312    0.0000 O   0  0  0  0  0  0  0  0  0  0  0  0
    0.7145    0.2063    0.0000 C   0  0  0  0  0  0  0  0  0  0  0  0
    0.7145    1.0312    0.0000 O   0  0  0  0  0  0  0  0  0  0  0  0
    1.4290   -0.2062    0.0000 C   0  0  0  0  0  0  0  0  0  0  0  0
    2.1434    0.2063    0.0000 O   0  5  0  0  0  0  0  0  0  0  0  0
    1.4290   -1.0312    0.0000 O   0  0  0  0  0  0  0  0  0  0  0  0
  2  3  1  0      
  3  4  1  0      
  4  5  1  0      
  4  6  1  0      
  6  7  1  0      
  6  8  1  0      
  8  9  1  0      
  8 10  1  0      
 10 11  1  0      
 10 12  1  0      
 12 13  1  0      
 12 14  2  0      
M  CHG  2   1   1  13  -1
M  END
>  <Bioactivity>
Sodium gluconate is a corrosion and scale inhibitor of ordinary steel in simulated cooling water.

>  <CAS>
527-07-1

>  <Col>
7

>  <Formula>
C6H11NaO7

>  <ID>
T0416

>  <Index>
46

>  <MOLENAME>
Sodium gluconate

>  <MolWt>
218.14

>  <Pathways>
Others

>  <Plate>
PLATE 001

>  <QR code>
1152410899

>  <Receptor>
Others

>  <Reference>
1. Ramachandran S, et al. Food Technol. Biotechnol, 2006, 44(2) 185-195.

>  <Row>
E

>  <SMILES>
[Na+].OCC(O)C(O)C(O)C(O)C([O-])=O

>  <Target>
Others

>  <Weight>
10.3mg

$$$$
Lab-1.sdf
  ChemDraw05232018482D

 22 25  0  0  0  0  0  0  0  0999 V2000
   -1.0717    0.4125    0.0000 O   0  0  0  0  0  0  0  0  0  0  0  0
   -0.3573    0.0000    0.0000 C   0  0  0  0  0  0  0  0  0  0  0  0
    0.3572    0.4125    0.0000 C   0  0  0  0  0  0  0  0  0  0  0  0
    0.3572    1.2375    0.0000 C   0  0  0  0  0  0  0  0  0  0  0  0
    1.0717    1.6500    0.0000 C   0  0  0  0  0  0  0  0  0  0  0  0
    1.2092    1.1000    0.0000 C   0  0  0  0  0  0  0  0  0  0  0  0
    1.2092    0.5500    0.0000 C   0  0  0  0  0  0  0  0  0  0  0  0
    1.0717    0.0000    0.0000 N   0  0  0  0  0  0  0  0  0  0  0  0
    1.7862    0.4125    0.0000 C   0  0  0  0  0  0  0  0  0  0  0  0
    1.7862    1.2375    0.0000 C   0  0  0  0  0  0  0  0  0  0  0  0
    2.5006    1.6500    0.0000 C   0  0  0  0  0  0  0  0  0  0  0  0
    2.5006    2.4750    0.0000 C   0  0  0  0  0  0  0  0  0  0  0  0
   -0.3573   -0.8250    0.0000 C   0  0  0  0  0  0  0  0  0  0  0  0
    0.3572   -1.2375    0.0000 C   0  0  0  0  0  0  0  0  0  0  0  0
    0.3572   -2.0625    0.0000 C   0  0  0  0  0  0  0  0  0  0  0  0
   -0.3573   -2.4750    0.0000 N   0  0  0  0  0  0  0  0  0  0  0  0
   -1.0717   -2.0625    0.0000 C   0  0  0  0  0  0  0  0  0  0  0  0
   -1.7861   -2.4750    0.0000 C   0  0  0  0  0  0  0  0  0  0  0  0
   -2.5006   -2.0625    0.0000 C   0  0  0  0  0  0  0  0  0  0  0  0
   -2.5006   -1.2375    0.0000 C   0  0  0  0  0  0  0  0  0  0  0  0
   -1.7861   -0.8250    0.0000 C   0  0  0  0  0  0  0  0  0  0  0  0
   -1.0717   -1.2375    0.0000 C   0  0  0  0  0  0  0  0  0  0  0  0
  1  2  1  0      
  2  3  1  0      
  3  4  1  0      
  4  5  1  0      
  5  6  1  0      
  6  7  1  0      
  7  8  1  0      
  3  8  1  0      
  8  9  1  0      
  9 10  1  0      
  5 10  1  0      
 10 11  1  0      
 11 12  2  0      
  2 13  1  0      
 13 14  2  0      
 14 15  1  0      
 15 16  2  0      
 16 17  1  0      
 17 18  2  0      
 18 19  1  0      
 19 20  2  0      
 20 21  1  0      
 21 22  2  0      
 13 22  1  0      
 17 22  1  0      
M  END
>  <Bioactivity>
A local anesthetic of the amide type now generally used for surface anesthesia. It is one of the most potent and toxic of the long-acting local anesthetics and its parenteral use is restricted to spin
al anesthesia.

>  <CAS>
118-10-5

>  <Col>
8

>  <Formula>
C19H22N2O

>  <ID>
T0012

>  <Index>
47

>  <MOLENAME>
Cinchonine

>  <MolWt>
294.39

>  <Pathways>
Membrane Transporter/Ion Channel

>  <Plate>
PLATE 001

>  <QR code>
1152410898

>  <Receptor>
Calmodulin; Sodium channel

>  <Reference>
1. Oka M, et al. Eur J Pharmacol. 2002 Oct 4;452(2):175-81.

>  <Row>
E

>  <SMILES>
OC(C1CC2CCN1CC2C=C)C1=CC=NC2=CC=CC=C12

>  <Target>
Calmodulin inhibitor; Sodium Channel inhibitor

>  <Weight>
10.2mg

$$$$
Lab-1.sdf
  ChemDraw05232018482D

 34 38  0  0  0  0  0  0  0  0999 V2000
    3.7476    1.1336    0.0000 C   0  0  0  0  0  0  0  0  0  0  0  0
    2.9724    0.8516    0.0000 C   0  0  0  0  0  0  0  0  0  0  0  0
    2.8291    1.6639    0.0000 C   0  0  0  0  0  0  0  0  0  0  0  0
    3.3849    0.1370    0.0000 C   0  0  0  0  0  0  0  0  0  0  0  0
    4.2099    0.1370    0.0000 O   0  0  0  0  0  0  0  0  0  0  0  0
    2.9724   -0.5774    0.0000 C   0  0  0  0  0  0  0  0  0  0  0  0
    2.1474   -0.5774    0.0000 C   0  0  0  0  0  0  0  0  0  0  0  0
    1.7349    0.1370    0.0000 C   0  0  0  0  0  0  0  0  0  0  0  0
    1.3224   -0.5774    0.0000 C   0  0  0  0  0  0  0  0  0  0  0  0
    2.1474    0.8516    0.0000 C   0  0  0  0  0  0  0  0  0  0  0  0
    1.7349    1.5659    0.0000 C   0  0  0  0  0  0  0  0  0  0  0  0
    0.9099    1.5659    0.0000 C   0  0  0  0  0  0  0  0  0  0  0  0
    0.4974    0.8516    0.0000 C   0  0  0  0  0  0  0  0  0  0  0  0
    0.0849    1.5659    0.0000 C   0  0  0  0  0  0  0  0  0  0  0  0
    0.9099    0.1370    0.0000 C   0  0  0  0  0  0  0  0  0  0  0  0
    0.4974   -0.5774    0.0000 C   0  0  0  0  0  0  0  0  0  0  0  0
    0.9099   -1.2918    0.0000 O   0  0  0  0  0  0  0  0  0  0  0  0
   -0.3276   -0.5774    0.0000 C   0  0  0  0  0  0  0  0  0  0  0  0
   -0.7401    0.1370    0.0000 C   0  0  0  0  0  0  0  0  0  0  0  0
   -1.5651    0.1370    0.0000 C   0  0  0  0  0  0  0  0  0  0  0  0
   -1.9776   -0.5774    0.0000 C   0  0  0  0  0  0  0  0  0  0  0  0
   -2.8026   -0.5774    0.0000 C   0  0  0  0  0  0  0  0  0  0  0  0
   -2.6594   -1.3898    0.0000 C   0  0  0  0  0  0  0  0  0  0  0  0
   -3.2151    0.1370    0.0000 C   0  0  0  0  0  0  0  0  0  0  0  0
   -2.8026    0.8516    0.0000 C   0  0  0  0  0  0  0  0  0  0  0  0
   -1.9776    0.8516    0.0000 C   0  0  0  0  0  0  0  0  0  0  0  0
   -2.3901    1.5659    0.0000 C   0  0  0  0  0  0  0  0  0  0  0  0
   -1.5651    1.5659    0.0000 C   0  0  0  0  0  0  0  0  0  0  0  0
   -0.7401    1.5659    0.0000 C   0  0  0  0  0  0  0  0  0  0  0  0
   -0.3276    0.8516    0.0000 C   0  0  0  0  0  0  0  0  0  0  0  0
   -0.4139    1.6720    0.0000 C   0  0  0  0  0  0  0  0  0  0  0  0
   -3.5779   -0.8595    0.0000 C   0  0  0  0  0  0  0  0  0  0  0  0
   -3.7211   -1.6720    0.0000 O   0  0  0  0  0  0  0  0  0  0  0  0
   -4.2099   -0.3292    0.0000 O   0  0  0  0  0  0  0  0  0  0  0  0
  1  2  1  0      
  2  3  1  0      
  2  4  1  0      
  4  5  1  0      
  4  6  1  0      
  6  7  1  0      
  7  8  1  0      
  8  9  1  0      
  8 10  1  0      
  2 10  1  0      
 10 11  1  0      
 11 12  1  0      
 12 13  1  0      
 13 14  1  0      
 13 15  1  0      
  8 15  1  0      
 15 16  1  0      
 16 17  2  0      
 16 18  1  0      
 18 19  2  0      
 19 20  1  0      
 20 21  1  0      
 21 22  1  0      
 22 23  1  0      
 22 24  1  0      
 24 25  1  0      
 25 26  1  0      
 20 26  1  0      
 26 27  1  0      
 26 28  1  0      
 28 29  1  0      
 29 30  1  0      
 13 30  1  0      
 19 30  1  0      
 30 31  1  0      
 22 32  1  0      
 32 33  1  0      
 32 34  2  0      
M  END
>  <Bioactivity>
Enoximone is a selective phosphodiesterase inhibitor with vasodilating and positive inotropic activity that does not cause changes in myocardial oxygen consumption. It is used in patients with congest
ive heart failure. Trials were halted in the U.S., but the drug is used in various countries.

>  <CAS>
471-53-4

>  <Col>
9

>  <Formula>
C30H46O4

>  <ID>
T0036

>  <Index>
48

>  <MOLENAME>
Enoxolone

>  <MolWt>
470.68

>  <Pathways>
Metabolism

>  <Plate>
PLATE 001

>  <QR code>
1152410897

>  <Receptor>
DHO

>  <Reference>
1. Boldt J, et al. Expert Opin PharmacOthers. 2007, 8(13):2135-47. 

>  <Row>
E

>  <SMILES>
CC1(C)C(O)CCC2(C)C1CCC1(C)C2C(=O)C=C2C3CC(C)(CCC3(C)CCC12C)C(O)=O

>  <Target>
Dehydrogenase inhibitor

>  <Weight>
10mg

$$$$
Lab-1.sdf
  ChemDraw05232018482D

 29 32  0  0  0  0  0  0  0  0999 V2000
   -4.3472   -1.6588    0.0000 C   0  0  0  0  0  0  0  0  0  0  0  0
   -3.5351   -1.5136    0.0000 C   0  0  0  0  0  0  0  0  0  0  0  0
   -3.0032   -2.1443    0.0000 O   0  0  0  0  0  0  0  0  0  0  0  0
   -3.2548   -0.7377    0.0000 O   0  0  0  0  0  0  0  0  0  0  0  0
   -2.4427   -0.5924    0.0000 C   0  0  0  0  0  0  0  0  0  0  0  0
   -2.1624    0.1836    0.0000 C   0  0  0  0  0  0  0  0  0  0  0  0
   -2.6942    0.8143    0.0000 O   0  0  0  0  0  0  0  0  0  0  0  0
   -1.3501    0.3288    0.0000 C   0  0  0  0  0  0  0  0  0  0  0  0
   -1.2906   -0.4941    0.0000 O   0  0  0  0  0  0  0  0  0  0  0  0
   -1.5794    1.1213    0.0000 C   0  0  0  0  0  0  0  0  0  0  0  0
   -0.8966    1.5843    0.0000 C   0  0  0  0  0  0  0  0  0  0  0  0
   -0.2453    1.0779    0.0000 C   0  0  0  0  0  0  0  0  0  0  0  0
    0.5669    1.2231    0.0000 C   0  0  0  0  0  0  0  0  0  0  0  0
    0.8471    1.9991    0.0000 C   0  0  0  0  0  0  0  0  0  0  0  0
    1.6593    2.1443    0.0000 C   0  0  0  0  0  0  0  0  0  0  0  0
    2.1912    1.5136    0.0000 C   0  0  0  0  0  0  0  0  0  0  0  0
    3.0033    1.6588    0.0000 C   0  0  0  0  0  0  0  0  0  0  0  0
    3.5351    1.0281    0.0000 C   0  0  0  0  0  0  0  0  0  0  0  0
    4.3472    1.1733    0.0000 O   0  0  0  0  0  0  0  0  0  0  0  0
    3.2548    0.2521    0.0000 C   0  0  0  0  0  0  0  0  0  0  0  0
    2.4427    0.1069    0.0000 C   0  0  0  0  0  0  0  0  0  0  0  0
    1.9108    0.7376    0.0000 C   0  0  0  0  0  0  0  0  0  0  0  0
    1.6305   -0.0384    0.0000 C   0  0  0  0  0  0  0  0  0  0  0  0
    1.0987    0.5924    0.0000 C   0  0  0  0  0  0  0  0  0  0  0  0
    0.8184   -0.1836    0.0000 C   0  0  0  0  0  0  0  0  0  0  0  0
    1.3502   -0.8143    0.0000 O   0  0  0  0  0  0  0  0  0  0  0  0
    0.0063   -0.3288    0.0000 C   0  0  0  0  0  0  0  0  0  0  0  0
   -0.5256    0.3020    0.0000 C   0  0  0  0  0  0  0  0  0  0  0  0
   -0.8854   -0.4405    0.0000 C   0  0  0  0  0  0  0  0  0  0  0  0
  1  2  1  0      
  2  3  2  0      
  2  4  1  0      
  4  5  1  0      
  5  6  1  0      
  6  7  2  0      
  6  8  1  0      
  8  9  1  0      
  8 10  1  0      
 10 11  1  0      
 11 12  1  0      
 12 13  1  0      
 13 14  1  0      
 14 15  1  0      
 15 16  1  0      
 16 17  2  0      
 17 18  1  0      
 18 19  2  0      
 18 20  1  0      
 20 21  1  0      
 21 22  1  0      
 16 22  1  0      
 22 23  1  0      
 22 24  1  0      
 13 24  1  0      
 24 25  1  0      
 25 26  2  0      
 25 27  1  0      
 27 28  1  0      
  8 28  1  0      
 12 28  1  0      
 28 29  1  0      
M  END
>  <Bioactivity>
Cortisone acetate is a steroid hormone that has both glucocoriticoid and mineral corticoid activities. Corticosteroids are used to provide relief for inflamed areas of the body. They lessen swelling, 
redness, itching, and allergic reactions. They are often used as part of the treatment for a number of different diseases, such as severe allergies or skin problems, asthma, or arthritis. Endogenous g
lucocorticoids and some synthetic corticoids have high affinity to the protein transcortin (also called CBG, corticosteroid- binding protein), whereas all of them bind albumin. Glucocorticoids also bi
nd to the cytosolic glucocorticoid receptor.

>  <CAS>
50-04-4

>  <Col>
10

>  <Formula>
C23H30O6

>  <ID>
T0034

>  <Index>
49

>  <MOLENAME>
Cortisone acetate

>  <MolWt>
402.49

>  <Pathways>
Endocrinology/ Hormones

>  <Plate>
PLATE 001

>  <QR code>
1152410896

>  <Receptor>
Glucocorticoid Receptor

>  <Reference>
1. Grossman R, et al. Ann N Y Acad Sci. 2006, 1071:410-21.

>  <Row>
E

>  <SMILES>
CC(=O)OCC(=O)C1(O)CCC2C3CCC4=CC(=O)CCC4(C)C3C(=O)CC12C

>  <Target>
Glucocorticoid Receptor agonist

>  <Weight>
10.3mg

$$$$
Lab-1.sdf
  ChemDraw05232018482D

 10  9  0  0  0  0  0  0  0  0999 V2000
   -2.1434    0.2062    0.0000 O   0  0  0  0  0  0  0  0  0  0  0  0
   -1.4289   -0.2062    0.0000 C   0  0  0  0  0  0  0  0  0  0  0  0
   -0.7144    0.2062    0.0000 C   0  0  0  0  0  0  0  0  0  0  0  0
   -0.7144    1.0312    0.0000 O   0  0  0  0  0  0  0  0  0  0  0  0
   -0.0000   -0.2062    0.0000 C   0  0  0  0  0  0  0  0  0  0  0  0
   -0.0000   -1.0312    0.0000 O   0  0  0  0  0  0  0  0  0  0  0  0
    0.7144    0.2062    0.0000 C   0  0  0  0  0  0  0  0  0  0  0  0
    0.7144    1.0312    0.0000 O   0  0  0  0  0  0  0  0  0  0  0  0
    1.4289   -0.2062    0.0000 C   0  0  0  0  0  0  0  0  0  0  0  0
    2.1434    0.2062    0.0000 O   0  0  0  0  0  0  0  0  0  0  0  0
  1  2  1  0      
  2  3  1  0      
  3  4  1  0      
  3  5  1  0      
  5  6  1  0      
  5  7  1  0      
  7  8  1  0      
  7  9  1  0      
  9 10  2  0      
M  END
>  <Bioactivity>
Xylose is a sugar first isolated from wood.  Xylose is classified as a monosaccharide of the aldopentose type.

>  <CAS>
25990-60-7

>  <Col>
11

>  <Formula>
C5H10O5

>  <ID>
T0032

>  <Index>
50

>  <MOLENAME>
DL-Xylose

>  <MolWt>
150.13

>  <Pathways>
Others

>  <Plate>
PLATE 001

>  <QR code>
1152410895

>  <Receptor>
Others

>  <Reference>
1. Buskas T, et al. Glycobiology. 2006 Aug;16(8):113R-136R. 

>  <Row>
E

>  <SMILES>
OCC(O)C(O)C(O)C=O

>  <Target>
Others

>  <Weight>
10.4mg

$$$$
Lab-1.sdf
  ChemDraw05232018482D

  9  7  0  0  0  0  0  0  0  0999 V2000
   -1.8930    0.0893    0.0000 Cl  0  0  0  0  0  0  0  0  0  0  0  0
    0.7660    1.4289    0.0000 C   0  0  0  0  0  0  0  0  0  0  0  0
    1.1785    0.7145    0.0000 N   0  3  0  0  0  0  0  0  0  0  0  0
    0.4640    0.3020    0.0000 C   0  0  0  0  0  0  0  0  0  0  0  0
    1.8930    1.1270    0.0000 C   0  0  0  0  0  0  0  0  0  0  0  0
    1.5910    0.0001    0.0000 C   0  0  0  0  0  0  0  0  0  0  0  0
    1.1785   -0.7144    0.0000 C   0  0  0  0  0  0  0  0  0  0  0  0
    1.5910   -1.4289    0.0000 O   0  0  0  0  0  0  0  0  0  0  0  0
    0.3535   -0.7144    0.0000 O   0  0  0  0  0  0  0  0  0  0  0  0
  2  3  1  0      
  3  4  1  0      
  3  5  1  0      
  3  6  1  0      
  6  7  1  0      
  7  8  1  0      
  7  9  2  0      
M  CHG  1   3   1
M  END
>  <Bioactivity>
Betaine hydrochloride is an acidic form of betaine, a vitamin-like substance found in grains and other foods; improves the amplification of DNA by reducing the formation of secondary structure in GC-r
ich regions.

>  <CAS>
590-46-5

>  <Col>
2

>  <Formula>
C5H12ClNO2

>  <ID>
T0019

>  <Index>
51

>  <MOLENAME>
Betaine hydrochloride

>  <MolWt>
153.61

>  <Pathways>
Others

>  <Plate>
PLATE 001

>  <QR code>
1152410883

>  <Receptor>
Glycine betaine-binding periplasmic protein; Circadian clock protein KaiB

>  <Reference>
1. Lee I. Biochem Biophys Res Commun. 2015 Jan 9;456(2):621-5. 

>  <Row>
F

>  <SMILES>
Cl.C[N+](C)(C)CC(O)=O

>  <Target>
Glycine betaine-binding periplasmic protein; Circadian clock protein KaiB

>  <Weight>
10.2mg

$$$$
Lab-1.sdf
  ChemDraw05232018482D

  7  6  0  0  0  0  0  0  0  0999 V2000
   -0.7145   -1.4437    0.0000 N   0  0  0  0  0  0  0  0  0  0  0  0
   -0.7145   -0.6187    0.0000 C   0  0  0  0  0  0  0  0  0  0  0  0
   -0.0000   -0.2062    0.0000 C   0  0  0  0  0  0  0  0  0  0  0  0
   -0.0000    0.6188    0.0000 S   0  0  0  0  0  0  0  0  0  0  0  0
   -0.0000    1.4437    0.0000 O   0  0  0  0  0  0  0  0  0  0  0  0
    0.8250    0.6188    0.0000 O   0  0  0  0  0  0  0  0  0  0  0  0
   -0.8250    0.6188    0.0000 O   0  0  0  0  0  0  0  0  0  0  0  0
  1  2  1  0      
  2  3  1  0      
  3  4  1  0      
  4  5  1  0      
  4  6  2  0      
  4  7  2  0      
M  END
>  <Bioactivity>
Taurine is an organic acid widely distributed in animal tissues. 

>  <CAS>
107-35-7

>  <Col>
3

>  <Formula>
C2H7NO3S

>  <ID>
T0022

>  <Index>
52

>  <MOLENAME>
Taurine

>  <MolWt>
125.15

>  <Pathways>
Metabolism

>  <Plate>
PLATE 001

>  <QR code>
1152410884

>  <Receptor>
LDL; VLDL

>  <Reference>
1. Huxtable RJ. Prog Neurobiol, 1989, 32(6), 471-533.

>  <Row>
F

>  <SMILES>
NCCS(O)(=O)=O

>  <Target>
Lipid

>  <Weight>
10.3mg

$$$$
Lab-1.sdf
  ChemDraw05232018482D

 95 96  0  0  0  0  0  0  0  0999 V2000
   -4.7384    3.6102    0.0000 O   0  0  0  0  0  0  0  0  0  0  0  0
   -4.7384    4.4352    0.0000 S   0  0  0  0  0  0  0  0  0  0  0  0
   -4.7384    5.2602    0.0000 O   0  0  0  0  0  0  0  0  0  0  0  0
   -3.9134    4.4352    0.0000 O   0  0  0  0  0  0  0  0  0  0  0  0
   -5.5634    4.4352    0.0000 O   0  0  0  0  0  0  0  0  0  0  0  0
   -1.3205    3.6102    0.0000 O   0  0  0  0  0  0  0  0  0  0  0  0
   -1.3205    4.4352    0.0000 S   0  0  0  0  0  0  0  0  0  0  0  0
   -1.3205    5.2602    0.0000 O   0  0  0  0  0  0  0  0  0  0  0  0
   -0.4955    4.4352    0.0000 O   0  0  0  0  0  0  0  0  0  0  0  0
   -2.1455    4.4352    0.0000 O   0  0  0  0  0  0  0  0  0  0  0  0
    2.0973    3.6102    0.0000 O   0  0  0  0  0  0  0  0  0  0  0  0
    2.0973    4.4352    0.0000 S   0  0  0  0  0  0  0  0  0  0  0  0
    2.0973    5.2602    0.0000 O   0  0  0  0  0  0  0  0  0  0  0  0
    2.9223    4.4352    0.0000 O   0  0  0  0  0  0  0  0  0  0  0  0
    1.2723    4.4352    0.0000 O   0  0  0  0  0  0  0  0  0  0  0  0
   -3.0178    1.3633    0.0000 C   0  0  0  0  0  0  0  0  0  0  0  0
   -2.4048    0.8113    0.0000 N   0  0  0  0  0  0  0  0  0  0  0  0
   -2.5763    0.0044    0.0000 C   0  0  0  0  0  0  0  0  0  0  0  0
   -1.9632   -0.5478    0.0000 C   0  0  0  0  0  0  0  0  0  0  0  0
   -1.1786   -0.2927    0.0000 O   0  0  0  0  0  0  0  0  0  0  0  0
   -2.1347   -1.3547    0.0000 C   0  0  0  0  0  0  0  0  0  0  0  0
   -1.5216   -1.9068    0.0000 O   0  0  0  0  0  0  0  0  0  0  0  0
   -2.9193   -1.6097    0.0000 C   0  0  0  0  0  0  0  0  0  0  0  0
   -3.0909   -2.4166    0.0000 C   0  0  0  0  0  0  0  0  0  0  0  0
   -2.4778   -2.9686    0.0000 O   0  0  0  0  0  0  0  0  0  0  0  0
   -3.5324   -1.0577    0.0000 O   0  0  0  0  0  0  0  0  0  0  0  0
   -3.3609   -0.2507    0.0000 C   0  0  0  0  0  0  0  0  0  0  0  0
   -3.9740    0.3015    0.0000 O   0  0  0  0  0  0  0  0  0  0  0  0
   -4.7586    0.0465    0.0000 C   0  0  0  0  0  0  0  0  0  0  0  0
   -5.0136   -0.7381    0.0000 C   0  0  0  0  0  0  0  0  0  0  0  0
   -4.5286   -1.4055    0.0000 O   0  0  0  0  0  0  0  0  0  0  0  0
   -4.8642   -2.1593    0.0000 C   0  0  0  0  0  0  0  0  0  0  0  0
   -4.3793   -2.8267    0.0000 C   0  0  0  0  0  0  0  0  0  0  0  0
   -3.5588   -2.7404    0.0000 O   0  0  0  0  0  0  0  0  0  0  0  0
   -4.7148   -3.5803    0.0000 C   0  0  0  0  0  0  0  0  0  0  0  0
   -4.2299   -4.2478    0.0000 O   0  0  0  0  0  0  0  0  0  0  0  0
   -5.5353   -3.6666    0.0000 C   0  0  0  0  0  0  0  0  0  0  0  0
   -5.8709   -4.4202    0.0000 N   0  0  0  0  0  0  0  0  0  0  0  0
   -6.6913   -4.5065    0.0000 C   0  0  0  0  0  0  0  0  0  0  0  0
   -7.0269   -5.2602    0.0000 N   0  0  0  0  0  0  0  0  0  0  0  0
   -7.1763   -3.8390    0.0000 N   0  0  0  0  0  0  0  0  0  0  0  0
   -6.0202   -2.9991    0.0000 C   0  0  0  0  0  0  0  0  0  0  0  0
   -6.8407   -3.0854    0.0000 O   0  0  0  0  0  0  0  0  0  0  0  0
   -5.6847   -2.2455    0.0000 C   0  0  0  0  0  0  0  0  0  0  0  0
   -6.1696   -1.5780    0.0000 N   0  0  0  0  0  0  0  0  0  0  0  0
   -6.9901   -1.6643    0.0000 C   0  0  0  0  0  0  0  0  0  0  0  0
   -7.4750   -0.9968    0.0000 N   0  0  0  0  0  0  0  0  0  0  0  0
   -7.3256   -2.4179    0.0000 N   0  0  0  0  0  0  0  0  0  0  0  0
   -5.8386   -0.7381    0.0000 O   0  0  0  0  0  0  0  0  0  0  0  0
   -6.0935    0.0465    0.0000 C   0  0  0  0  0  0  0  0  0  0  0  0
   -6.8781    0.3015    0.0000 C   0  0  0  0  0  0  0  0  0  0  0  0
   -5.4261    0.5313    0.0000 C   0  0  0  0  0  0  0  0  0  0  0  0
   -5.8311    1.2501    0.0000 O   0  0  0  0  0  0  0  0  0  0  0  0
   -5.0211    1.2501    0.0000 C   0  0  0  0  0  0  0  0  0  0  0  0
   -5.4410    1.9602    0.0000 O   0  0  0  0  0  0  0  0  0  0  0  0
    5.6357    1.3633    0.0000 C   0  0  0  0  0  0  0  0  0  0  0  0
    6.2488    0.8113    0.0000 N   0  0  0  0  0  0  0  0  0  0  0  0
    6.0773    0.0044    0.0000 C   0  0  0  0  0  0  0  0  0  0  0  0
    6.6904   -0.5478    0.0000 C   0  0  0  0  0  0  0  0  0  0  0  0
    7.4750   -0.2927    0.0000 O   0  0  0  0  0  0  0  0  0  0  0  0
    6.5189   -1.3547    0.0000 C   0  0  0  0  0  0  0  0  0  0  0  0
    7.1320   -1.9068    0.0000 O   0  0  0  0  0  0  0  0  0  0  0  0
    5.7342   -1.6097    0.0000 C   0  0  0  0  0  0  0  0  0  0  0  0
    5.5627   -2.4166    0.0000 C   0  0  0  0  0  0  0  0  0  0  0  0
    6.1758   -2.9686    0.0000 O   0  0  0  0  0  0  0  0  0  0  0  0
    5.1211   -1.0577    0.0000 O   0  0  0  0  0  0  0  0  0  0  0  0
    5.2927   -0.2507    0.0000 C   0  0  0  0  0  0  0  0  0  0  0  0
    4.6796    0.3015    0.0000 O   0  0  0  0  0  0  0  0  0  0  0  0
    3.8950    0.0465    0.0000 C   0  0  0  0  0  0  0  0  0  0  0  0
    3.6400   -0.7381    0.0000 C   0  0  0  0  0  0  0  0  0  0  0  0
    4.1249   -1.4055    0.0000 O   0  0  0  0  0  0  0  0  0  0  0  0
    3.7894   -2.1593    0.0000 C   0  0  0  0  0  0  0  0  0  0  0  0
    4.2743   -2.8267    0.0000 C   0  0  0  0  0  0  0  0  0  0  0  0
    5.0948   -2.7404    0.0000 O   0  0  0  0  0  0  0  0  0  0  0  0
    3.9388   -3.5803    0.0000 C   0  0  0  0  0  0  0  0  0  0  0  0
    4.4237   -4.2478    0.0000 O   0  0  0  0  0  0  0  0  0  0  0  0
    3.1183   -3.6666    0.0000 C   0  0  0  0  0  0  0  0  0  0  0  0
    2.7827   -4.4202    0.0000 N   0  0  0  0  0  0  0  0  0  0  0  0
    1.9622   -4.5065    0.0000 C   0  0  0  0  0  0  0  0  0  0  0  0
    1.6267   -5.2602    0.0000 N   0  0  0  0  0  0  0  0  0  0  0  0
    1.4773   -3.8390    0.0000 N   0  0  0  0  0  0  0  0  0  0  0  0
    2.6333   -2.9991    0.0000 C   0  0  0  0  0  0  0  0  0  0  0  0
    1.8129   -3.0854    0.0000 O   0  0  0  0  0  0  0  0  0  0  0  0
    2.9689   -2.2455    0.0000 C   0  0  0  0  0  0  0  0  0  0  0  0
    2.4840   -1.5780    0.0000 N   0  0  0  0  0  0  0  0  0  0  0  0
    1.6635   -1.6643    0.0000 C   0  0  0  0  0  0  0  0  0  0  0  0
    1.1786   -0.9968    0.0000 N   0  0  0  0  0  0  0  0  0  0  0  0
    1.3279   -2.4179    0.0000 N   0  0  0  0  0  0  0  0  0  0  0  0
    2.8150   -0.7381    0.0000 O   0  0  0  0  0  0  0  0  0  0  0  0
    2.5601    0.0465    0.0000 C   0  0  0  0  0  0  0  0  0  0  0  0
    1.7755    0.3015    0.0000 C   0  0  0  0  0  0  0  0  0  0  0  0
    3.2275    0.5313    0.0000 C   0  0  0  0  0  0  0  0  0  0  0  0
    2.8225    1.2501    0.0000 O   0  0  0  0  0  0  0  0  0  0  0  0
    3.6325    1.2501    0.0000 C   0  0  0  0  0  0  0  0  0  0  0  0
    3.2126    1.9602    0.0000 O   0  0  0  0  0  0  0  0  0  0  0  0
  1  2  1  0      
  2  3  1  0      
  2  4  2  0      
  2  5  2  0      
  6  7  1  0      
  7  8  1  0      
  7  9  2  0      
  7 10  2  0      
 11 12  1  0      
 12 13  1  0      
 12 14  2  0      
 12 15  2  0      
 16 17  1  0      
 17 18  1  0      
 18 19  1  0      
 19 20  1  0      
 19 21  1  0      
 21 22  1  0      
 21 23  1  0      
 23 24  1  0      
 24 25  1  0      
 23 26  1  0      
 26 27  1  0      
 18 27  1  0      
 27 28  1  0      
 28 29  1  0      
 29 30  1  0      
 30 31  1  0      
 31 32  1  0      
 32 33  1  0      
 33 34  1  0      
 33 35  1  0      
 35 36  1  0      
 35 37  1  0      
 37 38  1  0      
 38 39  2  0      
 39 40  1  0      
 39 41  1  0      
 37 42  1  0      
 42 43  1  0      
 42 44  1  0      
 32 44  1  0      
 44 45  1  0      
 45 46  2  0      
 46 47  1  0      
 46 48  1  0      
 30 49  1  0      
 49 50  1  0      
 50 51  1  0      
 50 52  1  0      
 29 52  1  0      
 52 53  1  0      
 52 54  1  0      
 54 55  2  0      
 56 57  1  0      
 57 58  1  0      
 58 59  1  0      
 59 60  1  0      
 59 61  1  0      
 61 62  1  0      
 61 63  1  0      
 63 64  1  0      
 64 65  1  0      
 63 66  1  0      
 66 67  1  0      
 58 67  1  0      
 67 68  1  0      
 68 69  1  0      
 69 70  1  0      
 70 71  1  0      
 71 72  1  0      
 72 73  1  0      
 73 74  1  0      
 73 75  1  0      
 75 76  1  0      
 75 77  1  0      
 77 78  1  0      
 78 79  2  0      
 79 80  1  0      
 79 81  1  0      
 77 82  1  0      
 82 83  1  0      
 82 84  1  0      
 72 84  1  0      
 84 85  1  0      
 85 86  2  0      
 86 87  1  0      
 86 88  1  0      
 70 89  1  0      
 89 90  1  0      
 90 91  1  0      
 90 92  1  0      
 69 92  1  0      
 92 93  1  0      
 92 94  1  0      
 94 95  2  0      
M  END
>  <Bioactivity>
Streptomycin sulfate is a sulfate salt of streptomycin that is a protein synthesis inhibitor.

>  <CAS>
3810-74-0

>  <Col>
4

>  <Formula>
2C21H39N7O12?3H2SO4

>  <ID>
T0060

>  <Index>
53

>  <MOLENAME>
Streptomycin sulfate

>  <MolWt>
1457.38

>  <Pathways>
Microbiology & Virology

>  <Plate>
PLATE 001

>  <QR code>
1152410885

>  <Receptor>
30S ribosomal protein

>  <Reference>
1. Li J, et al. Biotechnol Prog. 2012 May-Jun;28(3):733-9. 

>  <Row>
F

>  <SMILES>
OS(O)(=O)=O.OS(O)(=O)=O.OS(O)(=O)=O.CNC1C(O)C(O)C(CO)OC1OC1C(OC2C(O)C(O)C(N=C(N)N)C(O)C2N=C(N)N)OC(C)C1(O)C=O.CNC1C(O)C(O)C(CO)OC1OC1C(OC2C(O)C(O)C(N=C(N)N)C(O)C2N=C(N)N)OC(C)C1(O)C=O

>  <Target>
Antibiotic

>  <Weight>
10.3mg

$$$$
Lab-1.sdf
  ChemDraw05232018482D

  8  8  0  0  0  0  0  0  0  0999 V2000
    0.3573    1.2375    0.0000 O   0  0  0  0  0  0  0  0  0  0  0  0
    0.3573    0.4125    0.0000 C   0  0  0  0  0  0  0  0  0  0  0  0
    1.0717    0.0000    0.0000 N   0  0  0  0  0  0  0  0  0  0  0  0
    1.0717   -0.8250    0.0000 C   0  0  0  0  0  0  0  0  0  0  0  0
    0.3573   -1.2375    0.0000 C   0  0  0  0  0  0  0  0  0  0  0  0
   -0.3572   -0.8250    0.0000 C   0  0  0  0  0  0  0  0  0  0  0  0
   -1.0717   -1.2375    0.0000 O   0  0  0  0  0  0  0  0  0  0  0  0
   -0.3572    0.0000    0.0000 N   0  0  0  0  0  0  0  0  0  0  0  0
  1  2  2  0      
  2  3  1  0      
  3  4  1  0      
  4  5  2  0      
  5  6  1  0      
  6  7  2  0      
  6  8  1  0      
  2  8  1  0      
M  END
>  <Bioactivity>
Uracil is one of the four nucleobases in the nucleic acid of RNA can be used for drug delivery and as a pharmaceutical.

>  <CAS>
66-22-8

>  <Col>
5

>  <Formula>
C4H4N2O2

>  <ID>
T0069

>  <Index>
54

>  <MOLENAME>
Uracil

>  <MolWt>
112.09

>  <Pathways>
DNA Damage/DNA Repair

>  <Plate>
PLATE 001

>  <QR code>
1152410886

>  <Receptor>
RNA

>  <Reference>
1. Imming P, et al. Nat Rev Drug Discov. 2006 Oct; 5(10):821-34. 

>  <Row>
F

>  <SMILES>
O=C1NC=CC(=O)N1

>  <Target>
RNA synthesis

>  <Weight>
10.2mg

$$$$
Lab-1.sdf
  ChemDraw05232018482D

 32 34  0  0  0  0  0  0  0  0999 V2000
   -5.7157   -2.6812    0.0000 N   0  0  0  0  0  0  0  0  0  0  0  0
   -5.0012   -2.2687    0.0000 C   0  0  0  0  0  0  0  0  0  0  0  0
   -5.0012   -1.4437    0.0000 N   0  0  0  0  0  0  0  0  0  0  0  0
   -4.2868   -1.0312    0.0000 C   0  0  0  0  0  0  0  0  0  0  0  0
   -4.2868   -0.2062    0.0000 O   0  0  0  0  0  0  0  0  0  0  0  0
   -3.5723   -1.4437    0.0000 C   0  0  0  0  0  0  0  0  0  0  0  0
   -2.8579   -1.0312    0.0000 N   0  0  0  0  0  0  0  0  0  0  0  0
   -2.1434   -1.4437    0.0000 C   0  0  0  0  0  0  0  0  0  0  0  0
   -1.4290   -1.0312    0.0000 C   0  0  0  0  0  0  0  0  0  0  0  0
   -1.4290   -0.2062    0.0000 N   0  0  0  0  0  0  0  0  0  0  0  0
   -0.7145    0.2063    0.0000 C   0  0  0  0  0  0  0  0  0  0  0  0
   -0.7145    1.0313    0.0000 C   0  0  0  0  0  0  0  0  0  0  0  0
    0.0000    1.4438    0.0000 C   0  0  0  0  0  0  0  0  0  0  0  0
    0.7145    1.0313    0.0000 C   0  0  0  0  0  0  0  0  0  0  0  0
    0.7145    0.2063    0.0000 C   0  0  0  0  0  0  0  0  0  0  0  0
    0.0000   -0.2062    0.0000 C   0  0  0  0  0  0  0  0  0  0  0  0
    1.4289    1.4438    0.0000 C   0  0  0  0  0  0  0  0  0  0  0  0
    1.4289    2.2688    0.0000 O   0  0  0  0  0  0  0  0  0  0  0  0
    2.1434    1.0313    0.0000 N   0  0  0  0  0  0  0  0  0  0  0  0
    2.8578    1.4438    0.0000 C   0  0  0  0  0  0  0  0  0  0  0  0
    3.5723    1.0313    0.0000 C   0  0  0  0  0  0  0  0  0  0  0  0
    4.2868    1.4438    0.0000 C   0  0  0  0  0  0  0  0  0  0  0  0
    5.0013    1.0313    0.0000 C   0  0  0  0  0  0  0  0  0  0  0  0
    5.7157    1.4438    0.0000 O   0  0  0  0  0  0  0  0  0  0  0  0
    5.0013    0.2063    0.0000 O   0  0  0  0  0  0  0  0  0  0  0  0
    2.8578    2.2688    0.0000 C   0  0  0  0  0  0  0  0  0  0  0  0
    3.5723    2.6812    0.0000 O   0  0  0  0  0  0  0  0  0  0  0  0
    2.1434    2.6812    0.0000 O   0  0  0  0  0  0  0  0  0  0  0  0
   -2.1434   -2.2687    0.0000 C   0  0  0  0  0  0  0  0  0  0  0  0
   -2.8579   -2.6812    0.0000 N   0  0  0  0  0  0  0  0  0  0  0  0
   -3.5723   -2.2687    0.0000 C   0  0  0  0  0  0  0  0  0  0  0  0
   -4.2868   -2.6812    0.0000 N   0  0  0  0  0  0  0  0  0  0  0  0
  1  2  1  0      
  2  3  2  0      
  3  4  1  0      
  4  5  2  0      
  4  6  1  0      
  6  7  2  0      
  7  8  1  0      
  8  9  1  0      
  9 10  1  0      
 10 11  1  0      
 11 12  2  0      
 12 13  1  0      
 13 14  2  0      
 14 15  1  0      
 15 16  2  0      
 11 16  1  0      
 14 17  1  0      
 17 18  2  0      
 17 19  1  0      
 19 20  1  0      
 20 21  1  0      
 21 22  1  0      
 22 23  1  0      
 23 24  1  0      
 23 25  2  0      
 20 26  1  0      
 26 27  1  0      
 26 28  2  0      
  8 29  2  0      
 29 30  1  0      
 30 31  2  0      
  6 31  1  0      
 31 32  1  0      
  2 32  1  0      
M  END
>  <Bioactivity>
Folic acid(Vitamin M; Vitamin B9) is a B vitamin; is necessary for the production and maintenance of new cells, for DNA synthesis and RNA synthesis.

>  <CAS>
59-30-3

>  <Col>
6

>  <Formula>
C19H19N7O6

>  <ID>
T0062

>  <Index>
55

>  <MOLENAME>
Folic acid

>  <MolWt>
441.4

>  <Pathways>
Vitamin

>  <Plate>
PLATE 001

>  <QR code>
1152410887

>  <Receptor>
VB9

>  <Reference>
1. Shen F, et al. Biochemistry. 1995 Apr 25;34(16):5660-5. 

>  <Row>
F

>  <SMILES>
NC1=NC(=O)C2=NC(CNC3=CC=C(C=C3)C(=O)NC(CCC(O)=O)C(O)=O)=CN=C2N1

>  <Target>
VB

>  <Weight>
10.4mg

$$$$
Lab-1.sdf
  ChemDraw05232018482D

  9  8  0  0  0  0  0  0  0  0999 V2000
   -1.7861   -0.2062    0.0000 C   0  0  0  0  0  0  0  0  0  0  0  0
   -1.0718    0.2063    0.0000 C   0  0  0  0  0  0  0  0  0  0  0  0
   -0.3573   -0.2062    0.0000 C   0  0  0  0  0  0  0  0  0  0  0  0
   -0.3573   -1.0312    0.0000 C   0  0  0  0  0  0  0  0  0  0  0  0
    0.3572    0.2063    0.0000 C   0  0  0  0  0  0  0  0  0  0  0  0
    0.3572    1.0312    0.0000 N   0  0  0  0  0  0  0  0  0  0  0  0
    1.0716   -0.2062    0.0000 C   0  0  0  0  0  0  0  0  0  0  0  0
    1.7861    0.2063    0.0000 O   0  0  0  0  0  0  0  0  0  0  0  0
    1.0716   -1.0312    0.0000 O   0  0  0  0  0  0  0  0  0  0  0  0
  1  2  1  0      
  2  3  1  0      
  3  4  1  0      
  3  5  1  0      
  5  6  1  0      
  5  7  1  0      
  7  8  1  0      
  7  9  2  0      
M  END
>  <Bioactivity>
An essential branched-chain aliphatic amino acid found in many proteins. It is an isomer of LEUCINE. It is important in hemoglobin synthesis and regulation of blood sugar and energy levels. 

>  <CAS>
73-32-5

>  <Col>
7

>  <Formula>
C6H13NO2

>  <ID>
T0063

>  <Index>
56

>  <MOLENAME>
isoleucine

>  <MolWt>
131.17

>  <Pathways>
Amino Acids & Building Blocks

>  <Plate>
PLATE 001

>  <QR code>
1152410888

>  <Receptor>
Amino Acids and Derivatives

>  <Reference>
1. Korman SH, et al. Clin Chem. 2005 Mar;51(3):610-7. 

>  <Row>
F

>  <SMILES>
CCC(C)C(N)C(O)=O

>  <Target>
Amino Acids and Derivatives

>  <Weight>
10.4mg

$$$$
Lab-1.sdf
  ChemDraw05232018482D

 10 11  0  0  0  0  0  0  0  0999 V2000
    0.6347    1.2375    0.0000 N   0  0  0  0  0  0  0  0  0  0  0  0
    0.6347    0.4125    0.0000 C   0  0  0  0  0  0  0  0  0  0  0  0
    1.3492    0.0000    0.0000 N   0  0  0  0  0  0  0  0  0  0  0  0
    1.3492   -0.8250    0.0000 C   0  0  0  0  0  0  0  0  0  0  0  0
    0.6347   -1.2375    0.0000 N   0  0  0  0  0  0  0  0  0  0  0  0
   -0.0797   -0.8250    0.0000 C   0  0  0  0  0  0  0  0  0  0  0  0
   -0.0797    0.0000    0.0000 C   0  0  0  0  0  0  0  0  0  0  0  0
   -0.8644    0.2549    0.0000 N   0  0  0  0  0  0  0  0  0  0  0  0
   -1.3492   -0.4125    0.0000 C   0  0  0  0  0  0  0  0  0  0  0  0
   -0.8644   -1.0799    0.0000 N   0  0  0  0  0  0  0  0  0  0  0  0
  1  2  1  0      
  2  3  2  0      
  3  4  1  0      
  4  5  2  0      
  5  6  1  0      
  6  7  2  0      
  2  7  1  0      
  7  8  1  0      
  8  9  1  0      
  9 10  2  0      
  6 10  1  0      
M  END
>  <Bioactivity>
Adenine is a purine derivative and a nucleobase with a variety of roles in biochemistry. Adenine is a purine derivative and a nucleobase with a variety of roles in biochemistry including cellular resp
iration, in the form of both the energy-rich adenosine triphosphate (ATP) and the cofactors nicotinamide adenine dinucleotide (NAD) and flavin adenine dinucleotide (FAD), and protein synthesis, as a c
hemical component of DNA and RNA.

>  <CAS>
73-24-5

>  <Col>
8

>  <Formula>
C5H5N5

>  <ID>
T0064

>  <Index>
57

>  <MOLENAME>
Adenine

>  <MolWt>
135.13

>  <Pathways>
DNA Damage/DNA Repair

>  <Plate>
PLATE 001

>  <QR code>
1152410889

>  <Receptor>
Adenine phosphoribosyltransferase

>  <Reference>
1. Barrett C, et al. Assay Drug Dev Technol. 2006 Dec;4(6):661-9. 

>  <Row>
F

>  <SMILES>
NC1=NC=NC2=C1NC=N2

>  <Target>
Nucleoside Antimetabolite/Analogue

>  <Weight>
10.2mg

$$$$
Lab-1.sdf
  ChemDraw05232018482D

 55 66  0  0  0  0  0  0  0  0999 V2000
   -2.6058    2.3254    0.0000 O   0  0  0  0  0  0  0  0  0  0  0  0
   -2.6058    3.1347    0.0000 S   0  0  0  0  0  0  0  0  0  0  0  0
   -2.6058    3.9440    0.0000 O   0  0  0  0  0  0  0  0  0  0  0  0
   -1.7965    3.1347    0.0000 O   0  0  0  0  0  0  0  0  0  0  0  0
   -3.4151    3.1347    0.0000 O   0  0  0  0  0  0  0  0  0  0  0  0
    2.1462    0.8093    0.0000 O   0  0  0  0  0  0  0  0  0  0  0  0
    2.5885    1.4871    0.0000 C   0  0  0  0  0  0  0  0  0  0  0  0
    3.4164    1.4469    0.0000 C   0  0  0  0  0  0  0  0  0  0  0  0
    3.9330    2.1129    0.0000 C   0  0  0  0  0  0  0  0  0  0  0  0
    4.7721    2.1543    0.0000 O   0  0  0  0  0  0  0  0  0  0  0  0
    5.3336    2.7992    0.0000 C   0  0  0  0  0  0  0  0  0  0  0  0
    5.1797    3.6044    0.0000 C   0  0  0  0  0  0  0  0  0  0  0  0
    4.5156    4.0743    0.0000 C   0  0  0  0  0  0  0  0  0  0  0  0
    4.0166    4.9049    0.0000 C   0  0  0  0  0  0  0  0  0  0  0  0
    3.1204    4.8608    0.0000 N   0  0  0  0  0  0  0  0  0  0  0  0
    2.2604    4.9956    0.0000 C   0  0  0  0  0  0  0  0  0  0  0  0
    1.8098    4.3032    0.0000 C   0  0  0  0  0  0  0  0  0  0  0  0
    2.3432    3.6334    0.0000 C   0  0  0  0  0  0  0  0  0  0  0  0
    3.0607    4.0974    0.0000 C   0  0  0  0  0  0  0  0  0  0  0  0
    3.9714    3.9075    0.0000 C   0  0  0  0  0  0  0  0  0  0  0  0
    3.9125    3.3991    0.0000 C   0  0  0  0  0  0  0  0  0  0  0  0
    3.5182    2.7562    0.0000 C   0  0  0  0  0  0  0  0  0  0  0  0
    2.7026    2.8803    0.0000 C   0  0  0  0  0  0  0  0  0  0  0  0
    2.2194    2.2265    0.0000 N   0  0  0  0  0  0  0  0  0  0  0  0
    1.4507    2.5263    0.0000 C   0  0  0  0  0  0  0  0  0  0  0  0
    0.7197    2.1790    0.0000 C   0  0  0  0  0  0  0  0  0  0  0  0
    0.0534    2.6385    0.0000 C   0  0  0  0  0  0  0  0  0  0  0  0
    0.1182    3.4453    0.0000 C   0  0  0  0  0  0  0  0  0  0  0  0
    0.8492    3.7925    0.0000 C   0  0  0  0  0  0  0  0  0  0  0  0
    1.5154    3.3330    0.0000 C   0  0  0  0  0  0  0  0  0  0  0  0
   -3.2406   -4.9956    0.0000 O   0  0  0  0  0  0  0  0  0  0  0  0
   -2.7984   -4.3178    0.0000 C   0  0  0  0  0  0  0  0  0  0  0  0
   -1.9705   -4.3580    0.0000 C   0  0  0  0  0  0  0  0  0  0  0  0
   -1.4539   -3.6919    0.0000 C   0  0  0  0  0  0  0  0  0  0  0  0
   -0.6148   -3.6506    0.0000 O   0  0  0  0  0  0  0  0  0  0  0  0
   -0.0533   -3.0056    0.0000 C   0  0  0  0  0  0  0  0  0  0  0  0
   -0.2072   -2.2004    0.0000 C   0  0  0  0  0  0  0  0  0  0  0  0
   -0.8713   -1.7305    0.0000 C   0  0  0  0  0  0  0  0  0  0  0  0
   -1.3704   -0.9000    0.0000 C   0  0  0  0  0  0  0  0  0  0  0  0
   -2.2665   -0.9441    0.0000 N   0  0  0  0  0  0  0  0  0  0  0  0
   -3.1265   -0.8094    0.0000 C   0  0  0  0  0  0  0  0  0  0  0  0
   -3.5770   -1.5017    0.0000 C   0  0  0  0  0  0  0  0  0  0  0  0
   -3.0436   -2.1716    0.0000 C   0  0  0  0  0  0  0  0  0  0  0  0
   -2.3261   -1.7075    0.0000 C   0  0  0  0  0  0  0  0  0  0  0  0
   -1.4156   -1.8974    0.0000 C   0  0  0  0  0  0  0  0  0  0  0  0
   -1.4744   -2.4057    0.0000 C   0  0  0  0  0  0  0  0  0  0  0  0
   -1.8686   -3.0487    0.0000 C   0  0  0  0  0  0  0  0  0  0  0  0
   -2.6842   -2.9245    0.0000 C   0  0  0  0  0  0  0  0  0  0  0  0
   -3.1675   -3.5783    0.0000 N   0  0  0  0  0  0  0  0  0  0  0  0
   -3.9362   -3.2785    0.0000 C   0  0  0  0  0  0  0  0  0  0  0  0
   -4.6673   -3.6258    0.0000 C   0  0  0  0  0  0  0  0  0  0  0  0
   -5.3336   -3.1663    0.0000 C   0  0  0  0  0  0  0  0  0  0  0  0
   -5.2687   -2.3596    0.0000 C   0  0  0  0  0  0  0  0  0  0  0  0
   -4.5377   -2.0124    0.0000 C   0  0  0  0  0  0  0  0  0  0  0  0
   -3.8714   -2.4719    0.0000 C   0  0  0  0  0  0  0  0  0  0  0  0
  1  2  1  0      
  2  3  1  0      
  2  4  2  0      
  2  5  2  0      
  6  7  2  0      
  7  8  1  0      
  8  9  1  0      
  9 10  1  0      
 10 11  1  0      
 11 12  1  0      
 12 13  2  0      
 13 14  1  0      
 14 15  1  0      
 15 16  1  0      
 16 17  1  0      
 17 18  1  0      
 18 19  1  0      
 15 19  1  0      
 19 20  1  0      
 20 21  1  0      
 13 21  1  0      
 21 22  1  0      
  9 22  1  0      
 22 23  1  0      
 18 23  1  0      
 23 24  1  0      
  7 24  1  0      
 24 25  1  0      
 25 26  2  0      
 26 27  1  0      
 27 28  2  0      
 28 29  1  0      
 29 30  2  0      
 18 30  1  0      
 25 30  1  0      
 31 32  2  0      
 32 33  1  0      
 33 34  1  0      
 34 35  1  0      
 35 36  1  0      
 36 37  1  0      
 37 38  2  0      
 38 39  1  0      
 39 40  1  0      
 40 41  1  0      
 41 42  1  0      
 42 43  1  0      
 43 44  1  0      
 40 44  1  0      
 44 45  1  0      
 45 46  1  0      
 38 46  1  0      
 46 47  1  0      
 34 47  1  0      
 47 48  1  0      
 43 48  1  0      
 48 49  1  0      
 32 49  1  0      
 49 50  1  0      
 50 51  2  0      
 51 52  1  0      
 52 53  2  0      
 53 54  1  0      
 54 55  2  0      
 43 55  1  0      
 50 55  1  0      
M  END
>  <Bioactivity>
In smaller doses, strychnine functions as a stimulant and an athletic performance-enhancer. The most common source is from the seeds of the Strychnos nux-vomica tree.

>  <CAS>
60-41-3

>  <Col>
9

>  <Formula>
C21H22N2O2?0?5H2SO4

>  <ID>
T0052L

>  <Index>
58

>  <MOLENAME>
Strychnine Sulfate

>  <MolWt>
383.45

>  <Pathways>
Neuroscience

>  <Plate>
PLATE 001

>  <QR code>
1152410890

>  <Receptor>
Glycine receptor; Neuronal AChR

>  <Reference>
1. Leccese AP, Quinton EE. Behav Neurosci. 1983 Apr;97(2):323-6.

>  <Row>
F

>  <SMILES>
OS(O)(=O)=O.O=C1CC2OCC=C3CN4CCC56C4CC3C2C5N1C1=CC=CC=C61.O=C1CC2OCC=C3CN4CCC56C4CC3C2C5N1C1=CC=CC=C61

>  <Target>
AChR antagonist

>  <Weight>
10mg

$$$$
Lab-1.sdf
  ChemDraw05232018482D

 22 24  0  0  0  0  0  0  0  0999 V2000
   -0.0000    2.4750    0.0000 O   0  0  0  0  0  0  0  0  0  0  0  0
   -0.0000    1.6500    0.0000 C   0  0  0  0  0  0  0  0  0  0  0  0
    0.7145    1.2375    0.0000 C   0  0  0  0  0  0  0  0  0  0  0  0
    0.7145    0.4125    0.0000 C   0  0  0  0  0  0  0  0  0  0  0  0
   -0.0000    0.0000    0.0000 C   0  0  0  0  0  0  0  0  0  0  0  0
   -0.7144    0.4125    0.0000 C   0  0  0  0  0  0  0  0  0  0  0  0
   -0.7144    1.2375    0.0000 C   0  0  0  0  0  0  0  0  0  0  0  0
   -0.0000   -0.8250    0.0000 C   0  0  0  0  0  0  0  0  0  0  0  0
   -0.7144   -1.2375    0.0000 C   0  0  0  0  0  0  0  0  0  0  0  0
   -0.7144   -2.0625    0.0000 C   0  0  0  0  0  0  0  0  0  0  0  0
   -1.4289   -2.4750    0.0000 C   0  0  0  0  0  0  0  0  0  0  0  0
   -2.1434   -2.0625    0.0000 C   0  0  0  0  0  0  0  0  0  0  0  0
   -2.8579   -2.4750    0.0000 O   0  0  0  0  0  0  0  0  0  0  0  0
   -2.1434   -1.2375    0.0000 C   0  0  0  0  0  0  0  0  0  0  0  0
   -1.4289   -0.8250    0.0000 C   0  0  0  0  0  0  0  0  0  0  0  0
    0.7145   -1.2375    0.0000 C   0  0  0  0  0  0  0  0  0  0  0  0
    1.4290   -0.8250    0.0000 C   0  0  0  0  0  0  0  0  0  0  0  0
    2.1434   -1.2375    0.0000 C   0  0  0  0  0  0  0  0  0  0  0  0
    2.1434   -2.0625    0.0000 C   0  0  0  0  0  0  0  0  0  0  0  0
    2.8579   -2.4750    0.0000 O   0  0  0  0  0  0  0  0  0  0  0  0
    1.4290   -2.4750    0.0000 C   0  0  0  0  0  0  0  0  0  0  0  0
    0.7145   -2.0625    0.0000 C   0  0  0  0  0  0  0  0  0  0  0  0
  1  2  1  0      
  2  3  2  0      
  3  4  1  0      
  4  5  2  0      
  5  6  1  0      
  6  7  2  0      
  2  7  1  0      
  5  8  1  0      
  8  9  1  0      
  9 10  2  0      
 10 11  1  0      
 11 12  2  0      
 12 13  1  0      
 12 14  1  0      
 14 15  2  0      
  9 15  1  0      
  8 16  1  0      
 16 17  2  0      
 17 18  1  0      
 18 19  2  0      
 19 20  1  0      
 19 21  1  0      
 21 22  2  0      
 16 22  1  0      
M  END
>  <Bioactivity>
Balofloxacin is a quinolone antibiotic, inhibiting the synthesis of bacterial DNA by interference with the enqyme DNA gyrase.

>  <CAS>
127294-70-6

>  <Col>
10

>  <Formula>
C20H24FN3O4

>  <ID>
T0116

>  <Index>
59

>  <MOLENAME>
Balofloxacin

>  <MolWt>
389.42

>  <Pathways>
DNA Damage/DNA Repair; Microbiology & Virology

>  <Plate>
PLATE 001

>  <QR code>
1152410891

>  <Receptor>
DNA grase

>  <Reference>
1. Alksne L. Curr Opin Investig Drugs. 2003 Feb;4(2):224-9.

>  <Row>
F

>  <SMILES>
OC1=CC=C(C=C1)C(C1=CC=C(O)C=C1)C1=CC=C(O)C=C1

>  <Target>
Antibiotic; DNA grase inhibitor

>  <Weight>
10.3mg

$$$$
Lab-1.sdf
  ChemDraw05232018482D

 26 30  0  0  0  0  0  0  0  0999 V2000
   -4.7700   -0.0129    0.0000 Cl  0  5  0  0  0  0  0  0  0  0  0  0
    1.4783    1.4680    0.0000 C   0  0  0  0  0  0  0  0  0  0  0  0
    0.9833    0.8080    0.0000 N   0  3  0  0  0  0  0  0  0  0  0  0
    1.3075    0.0493    0.0000 C   0  0  0  0  0  0  0  0  0  0  0  0
    2.1265   -0.0493    0.0000 C   0  0  0  0  0  0  0  0  0  0  0  0
    2.6215    0.6107    0.0000 C   0  0  0  0  0  0  0  0  0  0  0  0
    3.4405    0.5121    0.0000 C   0  0  0  0  0  0  0  0  0  0  0  0
    3.7646   -0.2466    0.0000 C   0  0  0  0  0  0  0  0  0  0  0  0
    4.5863   -0.1728    0.0000 O   0  0  0  0  0  0  0  0  0  0  0  0
    4.7700    0.6315    0.0000 C   0  0  0  0  0  0  0  0  0  0  0  0
    4.0618    1.0548    0.0000 O   0  0  0  0  0  0  0  0  0  0  0  0
    3.2696   -0.9066    0.0000 C   0  0  0  0  0  0  0  0  0  0  0  0
    2.4507   -0.8080    0.0000 C   0  0  0  0  0  0  0  0  0  0  0  0
    1.9557   -1.4680    0.0000 C   0  0  0  0  0  0  0  0  0  0  0  0
    1.1366   -1.3694    0.0000 C   0  0  0  0  0  0  0  0  0  0  0  0
    0.8125   -0.6107    0.0000 C   0  0  0  0  0  0  0  0  0  0  0  0
   -0.0066   -0.5121    0.0000 C   0  0  0  0  0  0  0  0  0  0  0  0
   -0.5015   -1.1721    0.0000 C   0  0  0  0  0  0  0  0  0  0  0  0
   -1.3206   -1.0735    0.0000 C   0  0  0  0  0  0  0  0  0  0  0  0
   -1.6448   -0.3148    0.0000 C   0  0  0  0  0  0  0  0  0  0  0  0
   -1.1498    0.3452    0.0000 C   0  0  0  0  0  0  0  0  0  0  0  0
   -1.6246    1.0199    0.0000 O   0  0  0  0  0  0  0  0  0  0  0  0
   -2.4130    0.7768    0.0000 C   0  0  0  0  0  0  0  0  0  0  0  0
   -2.4254   -0.0481    0.0000 O   0  0  0  0  0  0  0  0  0  0  0  0
   -0.3307    0.2466    0.0000 C   0  0  0  0  0  0  0  0  0  0  0  0
    0.1642    0.9066    0.0000 C   0  0  0  0  0  0  0  0  0  0  0  0
  2  3  1  0      
  3  4  2  0      
  4  5  1  0      
  5  6  2  0      
  6  7  1  0      
  7  8  2  0      
  8  9  1  0      
  9 10  1  0      
 10 11  1  0      
  7 11  1  0      
  8 12  1  0      
 12 13  2  0      
  5 13  1  0      
 13 14  1  0      
 14 15  2  0      
 15 16  1  0      
  4 16  1  0      
 16 17  2  0      
 17 18  1  0      
 18 19  2  0      
 19 20  1  0      
 20 21  2  0      
 21 22  1  0      
 22 23  1  0      
 23 24  1  0      
 20 24  1  0      
 21 25  1  0      
 17 25  1  0      
 25 26  2  0      
  3 26  1  0      
M  CHG  2   1  -1   3   1
M  END
>  <Bioactivity>
Sanguinarine-containing mouthwashes are marketed as anti-plaque and anti-malodor.

>  <CAS>
5578-73-4

>  <Col>
11

>  <Formula>
C20H14ClNO4

>  <ID>
T0129

>  <Index>
60

>  <MOLENAME>
Sanguinarine chloride

>  <MolWt>
367.78

>  <Pathways>
Angiogenesis

>  <Plate>
PLATE 001

>  <QR code>
1152410892

>  <Receptor>
Egr-1; VEGF

>  <Reference>
1. Han MH, et al.Toxicol Lett. 2013 Jul 4;220(2):157-66. 

>  <Row>
F

>  <SMILES>
[Cl-].C[N+]1=C2C3=CC4=C(OCO4)C=C3C=CC2=C2C=CC3=C(OCO3)C2=C1

>  <Target>
Egr-1 inhibitor; VEGF inhibitor

>  <Weight>
10.5mg

$$$$
Lab-1.sdf
  ChemDraw05232018482D

 30 32  0  0  0  0  0  0  0  0999 V2000
   -4.7960    1.1480    0.0000 O   0  0  0  0  0  0  0  0  0  0  0  0
   -4.0815    0.7355    0.0000 C   0  0  0  0  0  0  0  0  0  0  0  0
   -3.3670    1.1480    0.0000 O   0  0  0  0  0  0  0  0  0  0  0  0
   -4.0815   -0.0895    0.0000 C   0  0  0  0  0  0  0  0  0  0  0  0
   -3.3670   -0.5019    0.0000 C   0  0  0  0  0  0  0  0  0  0  0  0
   -3.3670   -1.3269    0.0000 C   0  0  0  0  0  0  0  0  0  0  0  0
   -4.0815   -1.7394    0.0000 C   0  0  0  0  0  0  0  0  0  0  0  0
   -4.7960   -1.3269    0.0000 C   0  0  0  0  0  0  0  0  0  0  0  0
   -4.7960   -0.5019    0.0000 C   0  0  0  0  0  0  0  0  0  0  0  0
   -5.5104   -0.0895    0.0000 O   0  0  0  0  0  0  0  0  0  0  0  0
    5.5104   -1.5713    0.0000 C   0  0  0  0  0  0  0  0  0  0  0  0
    4.7069   -1.7587    0.0000 N   0  0  0  0  0  0  0  0  0  0  0  0
    4.1429   -1.1566    0.0000 C   0  0  0  0  0  0  0  0  0  0  0  0
    4.3823   -0.3671    0.0000 O   0  0  0  0  0  0  0  0  0  0  0  0
    3.3395   -1.3440    0.0000 O   0  0  0  0  0  0  0  0  0  0  0  0
    2.7755   -0.7419    0.0000 C   0  0  0  0  0  0  0  0  0  0  0  0
    1.9720   -0.9293    0.0000 C   0  0  0  0  0  0  0  0  0  0  0  0
    1.4080   -0.3272    0.0000 C   0  0  0  0  0  0  0  0  0  0  0  0
    1.6475    0.4623    0.0000 C   0  0  0  0  0  0  0  0  0  0  0  0
    2.4509    0.6497    0.0000 C   0  0  0  0  0  0  0  0  0  0  0  0
    3.0149    0.0476    0.0000 C   0  0  0  0  0  0  0  0  0  0  0  0
    0.9706    0.9340    0.0000 N   0  0  0  0  0  0  0  0  0  0  0  0
    0.9543    1.7587    0.0000 C   0  0  0  0  0  0  0  0  0  0  0  0
    0.3128    0.4360    0.0000 C   0  0  0  0  0  0  0  0  0  0  0  0
   -0.5120    0.4197    0.0000 N   0  0  0  0  0  0  0  0  0  0  0  0
   -1.0100    1.0775    0.0000 C   0  0  0  0  0  0  0  0  0  0  0  0
   -0.7514   -0.3698    0.0000 C   0  0  0  0  0  0  0  0  0  0  0  0
   -0.0746   -0.8414    0.0000 C   0  0  0  0  0  0  0  0  0  0  0  0
    0.5832   -0.3435    0.0000 C   0  0  0  0  0  0  0  0  0  0  0  0
    0.8535   -1.1229    0.0000 C   0  0  0  0  0  0  0  0  0  0  0  0
  1  2  1  0      
  2  3  2  0      
  2  4  1  0      
  4  5  2  0      
  5  6  1  0      
  6  7  2  0      
  7  8  1  0      
  8  9  2  0      
  4  9  1  0      
  9 10  1  0      
 11 12  1  0      
 12 13  1  0      
 13 14  2  0      
 13 15  1  0      
 15 16  1  0      
 16 17  2  0      
 17 18  1  0      
 18 19  2  0      
 19 20  1  0      
 20 21  2  0      
 16 21  1  0      
 19 22  1  0      
 22 23  1  0      
 22 24  1  0      
 24 25  1  0      
 25 26  1  0      
 25 27  1  0      
 27 28  1  0      
 28 29  1  0      
 18 29  1  0      
 24 29  1  0      
 29 30  1  0      
M  END
>  <Bioactivity>
Physostigmine is a parasympathomimetic alkaloid, specifically, a reversible cholinesterase inhibitor. It occurs naturally in the Calabar bean.

>  <CAS>
57-64-7

>  <Col>
2

>  <Formula>
C22H27N3O5

>  <ID>
T0130

>  <Index>
61

>  <MOLENAME>
Physostigmine Salicylate

>  <MolWt>
413.48

>  <Pathways>
Neuroscience

>  <Plate>
PLATE 001

>  <QR code>
1152410880

>  <Receptor>
ChE

>  <Reference>
1. Lim DK, et al. Pharmacol Biochem Behav. 1988 Nov;31(3):627-31.

>  <Row>
G

>  <SMILES>
OC(=O)C1=CC=CC=C1O.CNC(=O)OC1=CC2=C(C=C1)N(C)C1N(C)CCC21C

>  <Target>
ChE inhibitor

>  <Weight>
10.3mg

$$$$
Lab-1.sdf
  ChemDraw05232018482D

 34 36  0  0  0  0  0  0  0  0999 V2000
   -5.3585   -3.3000    0.0000 N   0  0  0  0  0  0  0  0  0  0  0  0
   -4.6441   -2.8875    0.0000 C   0  0  0  0  0  0  0  0  0  0  0  0
   -3.9296   -3.3000    0.0000 N   0  0  0  0  0  0  0  0  0  0  0  0
   -3.2151   -2.8875    0.0000 C   0  0  0  0  0  0  0  0  0  0  0  0
   -2.5007   -3.3000    0.0000 O   0  0  0  0  0  0  0  0  0  0  0  0
   -3.2151   -2.0625    0.0000 C   0  0  0  0  0  0  0  0  0  0  0  0
   -3.9296   -1.6500    0.0000 C   0  0  0  0  0  0  0  0  0  0  0  0
   -3.9296   -0.8250    0.0000 N   0  0  0  0  0  0  0  0  0  0  0  0
   -3.2151   -0.4125    0.0000 C   0  0  0  0  0  0  0  0  0  0  0  0
   -2.5007   -0.8250    0.0000 C   0  0  0  0  0  0  0  0  0  0  0  0
   -1.7862   -0.4125    0.0000 C   0  0  0  0  0  0  0  0  0  0  0  0
   -1.7862    0.4125    0.0000 N   0  0  0  0  0  0  0  0  0  0  0  0
   -1.0717    0.8250    0.0000 C   0  0  0  0  0  0  0  0  0  0  0  0
   -1.0717    1.6500    0.0000 C   0  0  0  0  0  0  0  0  0  0  0  0
   -0.3572    2.0625    0.0000 C   0  0  0  0  0  0  0  0  0  0  0  0
    0.3572    1.6500    0.0000 C   0  0  0  0  0  0  0  0  0  0  0  0
    0.3572    0.8250    0.0000 C   0  0  0  0  0  0  0  0  0  0  0  0
   -0.3572    0.4125    0.0000 C   0  0  0  0  0  0  0  0  0  0  0  0
    1.0717    2.0625    0.0000 C   0  0  0  0  0  0  0  0  0  0  0  0
    1.0717    2.8875    0.0000 O   0  0  0  0  0  0  0  0  0  0  0  0
    1.7862    1.6500    0.0000 N   0  0  0  0  0  0  0  0  0  0  0  0
    2.5006    2.0625    0.0000 C   0  0  0  0  0  0  0  0  0  0  0  0
    3.2151    1.6500    0.0000 C   0  0  0  0  0  0  0  0  0  0  0  0
    3.9296    2.0625    0.0000 C   0  0  0  0  0  0  0  0  0  0  0  0
    4.6441    1.6500    0.0000 C   0  0  0  0  0  0  0  0  0  0  0  0
    5.3585    2.0625    0.0000 O   0  0  0  0  0  0  0  0  0  0  0  0
    4.6441    0.8250    0.0000 O   0  0  0  0  0  0  0  0  0  0  0  0
    2.5006    2.8875    0.0000 C   0  0  0  0  0  0  0  0  0  0  0  0
    3.2151    3.3000    0.0000 O   0  0  0  0  0  0  0  0  0  0  0  0
    1.7862    3.3000    0.0000 O   0  0  0  0  0  0  0  0  0  0  0  0
   -2.5007   -1.6500    0.0000 N   0  0  0  0  0  0  0  0  0  0  0  0
   -1.7862   -2.0625    0.0000 C   0  0  0  0  0  0  0  0  0  0  0  0
   -1.7862   -2.8875    0.0000 O   0  0  0  0  0  0  0  0  0  0  0  0
   -4.6441   -2.0625    0.0000 N   0  0  0  0  0  0  0  0  0  0  0  0
  1  2  1  0      
  2  3  2  0      
  3  4  1  0      
  4  5  2  0      
  4  6  1  0      
  6  7  2  0      
  7  8  1  0      
  8  9  1  0      
  9 10  1  0      
 10 11  1  0      
 11 12  1  0      
 12 13  1  0      
 13 14  2  0      
 14 15  1  0      
 15 16  2  0      
 16 17  1  0      
 17 18  2  0      
 13 18  1  0      
 16 19  1  0      
 19 20  2  0      
 19 21  1  0      
 21 22  1  0      
 22 23  1  0      
 23 24  1  0      
 24 25  1  0      
 25 26  1  0      
 25 27  2  0      
 22 28  1  0      
 28 29  1  0      
 28 30  2  0      
 10 31  1  0      
  6 31  1  0      
 31 32  1  0      
 32 33  2  0      
  7 34  1  0      
  2 34  1  0      
M  END
>  <Bioactivity>
Leucovorin Calcium is a reduced folic acid.

>  <CAS>
1492-18-8

>  <Col>
3

>  <Formula>
C20H21CaN7O7

>  <ID>
T0148

>  <Index>
62

>  <MOLENAME>
Calcium folinate

>  <MolWt>
511.51

>  <Pathways>
Vitamin

>  <Plate>
PLATE 001

>  <QR code>
1152410879

>  <Receptor>
TS; VB

>  <Reference>
1. Aschele C, et al. Ann Oncol. 2002 Dec; 13(12):1882-92.

>  <Row>
G

>  <SMILES>
NC1=NC(=O)C2=C(NCC(CNC3=CC=C(C=C3)C(=O)NC(CCC(O)=O)C(O)=O)N2C=O)N1

>  <Target>
VB

>  <Weight>
10.3mg

$$$$
Lab-1.sdf
  ChemDraw05232018482D

 61 63  0  0  0  0  0  0  0  0999 V2000
   -6.8128    4.0111    0.0000 O   0  0  0  0  0  0  0  0  0  0  0  0
   -4.4557    4.0111    0.0000 O   0  0  0  0  0  0  0  0  0  0  0  0
   -6.8128   -1.3048    0.0000 O   0  0  0  0  0  0  0  0  0  0  0  0
    6.2652   -0.0178    0.0000 C   0  0  0  0  0  0  0  0  0  0  0  0
    5.4491   -0.1388    0.0000 C   0  0  0  0  0  0  0  0  0  0  0  0
    4.9363    0.5073    0.0000 O   0  0  0  0  0  0  0  0  0  0  0  0
    5.1459   -0.9061    0.0000 O   0  0  0  0  0  0  0  0  0  0  0  0
    5.6587   -1.5523    0.0000 C   0  0  0  0  0  0  0  0  0  0  0  0
    6.1502   -0.8897    0.0000 C   0  0  0  0  0  0  0  0  0  0  0  0
    6.8128   -1.3812    0.0000 O   0  0  0  0  0  0  0  0  0  0  0  0
    6.3213   -2.0438    0.0000 C   0  0  0  0  0  0  0  0  0  0  0  0
    6.2270   -2.8634    0.0000 C   0  0  0  0  0  0  0  0  0  0  0  0
    5.4701   -3.1915    0.0000 C   0  0  0  0  0  0  0  0  0  0  0  0
    5.3757   -4.0111    0.0000 O   0  0  0  0  0  0  0  0  0  0  0  0
    4.8074   -2.7000    0.0000 C   0  0  0  0  0  0  0  0  0  0  0  0
    4.8055   -3.5250    0.0000 C   0  0  0  0  0  0  0  0  0  0  0  0
    4.9018   -1.8804    0.0000 C   0  0  0  0  0  0  0  0  0  0  0  0
    4.3521   -1.2098    0.0000 C   0  0  0  0  0  0  0  0  0  0  0  0
    4.7669   -0.4967    0.0000 O   0  0  0  0  0  0  0  0  0  0  0  0
    4.3566    0.2190    0.0000 C   0  0  0  0  0  0  0  0  0  0  0  0
    3.5316    0.2217    0.0000 O   0  0  0  0  0  0  0  0  0  0  0  0
    4.7714    0.9322    0.0000 C   0  0  0  0  0  0  0  0  0  0  0  0
    4.3612    1.6480    0.0000 C   0  0  0  0  0  0  0  0  0  0  0  0
    4.7760    2.3611    0.0000 C   0  0  0  0  0  0  0  0  0  0  0  0
    5.6010    2.3585    0.0000 C   0  0  0  0  0  0  0  0  0  0  0  0
    6.0112    1.6427    0.0000 C   0  0  0  0  0  0  0  0  0  0  0  0
    5.5964    0.9295    0.0000 C   0  0  0  0  0  0  0  0  0  0  0  0
    3.4915   -1.0626    0.0000 C   0  0  0  0  0  0  0  0  0  0  0  0
    3.7550   -0.2808    0.0000 O   0  0  0  0  0  0  0  0  0  0  0  0
    2.7233   -0.6620    0.0000 C   0  0  0  0  0  0  0  0  0  0  0  0
    1.9755   -1.0562    0.0000 C   0  0  0  0  0  0  0  0  0  0  0  0
    1.2620   -0.6420    0.0000 O   0  0  0  0  0  0  0  0  0  0  0  0
    0.5466   -1.0528    0.0000 C   0  0  0  0  0  0  0  0  0  0  0  0
    0.5447   -1.8778    0.0000 O   0  0  0  0  0  0  0  0  0  0  0  0
   -0.1669   -0.6387    0.0000 C   0  0  0  0  0  0  0  0  0  0  0  0
   -0.1650    0.1862    0.0000 O   0  0  0  0  0  0  0  0  0  0  0  0
   -0.8823   -1.0495    0.0000 C   0  0  0  0  0  0  0  0  0  0  0  0
   -1.5959   -0.6353    0.0000 N   0  0  0  0  0  0  0  0  0  0  0  0
   -2.3113   -1.0461    0.0000 C   0  0  0  0  0  0  0  0  0  0  0  0
   -2.3132   -1.8711    0.0000 O   0  0  0  0  0  0  0  0  0  0  0  0
   -3.0248   -0.6320    0.0000 O   0  0  0  0  0  0  0  0  0  0  0  0
   -3.7402   -1.0428    0.0000 C   0  0  0  0  0  0  0  0  0  0  0  0
   -4.4557   -1.4536    0.0000 C   0  0  0  0  0  0  0  0  0  0  0  0
   -4.1511   -0.3274    0.0000 C   0  0  0  0  0  0  0  0  0  0  0  0
   -3.3294   -1.7582    0.0000 C   0  0  0  0  0  0  0  0  0  0  0  0
   -0.8843   -1.8745    0.0000 C   0  0  0  0  0  0  0  0  0  0  0  0
   -0.1708   -2.2887    0.0000 C   0  0  0  0  0  0  0  0  0  0  0  0
   -0.1727   -3.1137    0.0000 C   0  0  0  0  0  0  0  0  0  0  0  0
   -0.8881   -3.5245    0.0000 C   0  0  0  0  0  0  0  0  0  0  0  0
   -1.6016   -3.1103    0.0000 C   0  0  0  0  0  0  0  0  0  0  0  0
   -1.5997   -2.2853    0.0000 C   0  0  0  0  0  0  0  0  0  0  0  0
    2.0041   -1.9010    0.0000 C   0  0  0  0  0  0  0  0  0  0  0  0
    1.2868   -2.3086    0.0000 C   0  0  0  0  0  0  0  0  0  0  0  0
    2.7329   -2.3694    0.0000 C   0  0  0  0  0  0  0  0  0  0  0  0
    3.2876   -3.0437    0.0000 C   0  0  0  0  0  0  0  0  0  0  0  0
    2.8691   -3.7547    0.0000 O   0  0  0  0  0  0  0  0  0  0  0  0
    4.1293   -3.1981    0.0000 C   0  0  0  0  0  0  0  0  0  0  0  0
    4.3142   -4.0021    0.0000 O   0  0  0  0  0  0  0  0  0  0  0  0
    3.1699   -1.7495    0.0000 C   0  0  0  0  0  0  0  0  0  0  0  0
    3.6743   -2.4023    0.0000 C   0  0  0  0  0  0  0  0  0  0  0  0
    3.9869   -1.8637    0.0000 C   0  0  0  0  0  0  0  0  0  0  0  0
  4  5  1  0      
  5  6  2  0      
  5  7  1  0      
  7  8  1  0      
  8  9  1  0      
  9 10  1  0      
 10 11  1  0      
  8 11  1  0      
 11 12  1  0      
 12 13  1  0      
 13 14  1  0      
 13 15  1  0      
 15 16  1  0      
 15 17  1  0      
  8 17  1  0      
 17 18  1  0      
 18 19  1  0      
 19 20  1  0      
 20 21  2  0      
 20 22  1  0      
 22 23  2  0      
 23 24  1  0      
 24 25  2  0      
 25 26  1  0      
 26 27  2  0      
 22 27  1  0      
 18 28  1  0      
 28 29  1  0      
 28 30  1  0      
 30 31  1  0      
 31 32  1  0      
 32 33  1  0      
 33 34  2  0      
 33 35  1  0      
 35 36  1  0      
 35 37  1  0      
 37 38  1  0      
 38 39  1  0      
 39 40  2  0      
 39 41  1  0      
 41 42  1  0      
 42 43  1  0      
 42 44  1  0      
 42 45  1  0      
 37 46  1  0      
 46 47  2  0      
 47 48  1  0      
 48 49  2  0      
 49 50  1  0      
 50 51  2  0      
 46 51  1  0      
 31 52  1  0      
 52 53  1  0      
 52 54  2  0      
 54 55  1  0      
 55 56  1  0      
 55 57  1  0      
 15 57  1  0      
 57 58  2  0      
 54 59  1  0      
 28 59  1  0      
 59 60  1  0      
 59 61  1  0      
M  END
>  <Bioactivity>
Docetaxel trihydrate(Taxotere trihydrate), an analog of taxol, is an inhibitor of depolymerisation of microtubules through binding to stabilized microtubules.

>  <CAS>
148408-66-6

>  <Col>
4

>  <Formula>
C43H59NO17

>  <ID>
T0186

>  <Index>
63

>  <MOLENAME>
Docetaxel trihydrate

>  <MolWt>
861.95

>  <Pathways>
Apoptosis; Cell Cycle/Checkpoint

>  <Plate>
PLATE 001

>  <QR code>
1152410878

>  <Receptor>
Bcl-2; ?Tubulin beta-1 chain

>  <Reference>
1. Matesanz R, et al. Chem Biol. 2008 Jun;15(6):573-85.

>  <Row>
G

>  <SMILES>
O.O.O.CC(=O)OC12COC1CC(O)C1(C)C2C(OC(=O)C2=CC=CC=C2)C2(O)CC(OC(=O)C(O)C(NC(=O)OC(C)(C)C)C3=CC=CC=C3)C(C)=C(C(O)C1=O)C2(C)C

>  <Target>
Bcl-2 inhibitor; Microtubule Associated inhibitor

>  <Weight>
10.1mg

$$$$
Lab-1.sdf
  ChemDraw05232018482D

 12 12  0  0  0  0  0  0  0  0999 V2000
   -2.7962   -0.1227    0.0000 O   0  0  0  0  0  0  0  0  0  0  0  0
   -2.0817    0.2897    0.0000 C   0  0  0  0  0  0  0  0  0  0  0  0
   -2.0817    1.1147    0.0000 O   0  0  0  0  0  0  0  0  0  0  0  0
   -1.3672   -0.1227    0.0000 C   0  0  0  0  0  0  0  0  0  0  0  0
   -0.6528    0.2897    0.0000 C   0  0  0  0  0  0  0  0  0  0  0  0
    0.0616   -0.1227    0.0000 C   0  0  0  0  0  0  0  0  0  0  0  0
    0.7761    0.2897    0.0000 C   0  0  0  0  0  0  0  0  0  0  0  0
    1.4905   -0.1227    0.0000 C   0  0  0  0  0  0  0  0  0  0  0  0
    2.2442    0.2128    0.0000 C   0  0  0  0  0  0  0  0  0  0  0  0
    2.7962   -0.4002    0.0000 C   0  0  0  0  0  0  0  0  0  0  0  0
    2.3837   -1.1147    0.0000 S   0  0  0  0  0  0  0  0  0  0  0  0
    1.5768   -0.9431    0.0000 S   0  0  0  0  0  0  0  0  0  0  0  0
  1  2  1  0      
  2  3  2  0      
  2  4  1  0      
  4  5  1  0      
  5  6  1  0      
  6  7  1  0      
  7  8  1  0      
  8  9  1  0      
  9 10  1  0      
 10 11  1  0      
 11 12  1  0      
  8 12  1  0      
M  END
>  <Bioactivity>
THIOOCTIC ACID, a natural product, is reported to have antioxidative property.

>  <CAS>
1077-28-7

>  <Col>
5

>  <Formula>
C8H14O2S2

>  <ID>
T0200

>  <Index>
64

>  <MOLENAME>
Thioctic acid

>  <MolWt>
206.33

>  <Pathways>
Vitamin

>  <Plate>
PLATE 001

>  <QR code>
1152410877

>  <Receptor>
Multivitamin uptake inhibitor

>  <Reference>
1. Ning-Ping Foo, et al. Toxicology Volume 282, Issues 1?2, 28 March 2011, Pages 39?46

>  <Row>
G

>  <SMILES>
OC(=O)CCCCC1CCSS1

>  <Target>
Others

>  <Weight>
10.3mg

$$$$
Lab-1.sdf
  ChemDraw05232018482D

 44 48  0  0  0  0  0  0  0  0999 V2000
   -5.7157   -1.0312    0.0000 C   0  0  0  0  0  0  0  0  0  0  0  0
   -5.7157   -0.2062    0.0000 O   0  0  0  0  0  0  0  0  0  0  0  0
   -5.0012    0.2062    0.0000 C   0  0  0  0  0  0  0  0  0  0  0  0
   -5.0012    1.0312    0.0000 C   0  0  0  0  0  0  0  0  0  0  0  0
   -5.7157    1.4438    0.0000 O   0  0  0  0  0  0  0  0  0  0  0  0
   -5.7157    2.2687    0.0000 C   0  0  0  0  0  0  0  0  0  0  0  0
   -4.2868    1.4438    0.0000 C   0  0  0  0  0  0  0  0  0  0  0  0
   -3.5723    1.0312    0.0000 C   0  0  0  0  0  0  0  0  0  0  0  0
   -3.5723    0.2062    0.0000 C   0  0  0  0  0  0  0  0  0  0  0  0
   -4.2868   -0.2062    0.0000 C   0  0  0  0  0  0  0  0  0  0  0  0
   -2.8579    1.4438    0.0000 C   0  0  0  0  0  0  0  0  0  0  0  0
   -2.8579    2.2687    0.0000 C   0  0  0  0  0  0  0  0  0  0  0  0
   -2.1434    2.6812    0.0000 C   0  0  0  0  0  0  0  0  0  0  0  0
   -2.1434    3.5062    0.0000 O   0  0  0  0  0  0  0  0  0  0  0  0
   -1.4290    2.2687    0.0000 C   0  0  0  0  0  0  0  0  0  0  0  0
   -0.7145    2.6812    0.0000 C   0  0  0  0  0  0  0  0  0  0  0  0
   -0.7145    3.5062    0.0000 O   0  0  0  0  0  0  0  0  0  0  0  0
    0.0000    2.2687    0.0000 C   0  0  0  0  0  0  0  0  0  0  0  0
    0.0000    1.4438    0.0000 C   0  0  0  0  0  0  0  0  0  0  0  0
    0.7145    1.0312    0.0000 O   0  0  0  0  0  0  0  0  0  0  0  0
    0.7145    0.2062    0.0000 C   0  0  0  0  0  0  0  0  0  0  0  0
    1.4289   -0.2062    0.0000 O   0  0  0  0  0  0  0  0  0  0  0  0
    1.4289   -1.0312    0.0000 C   0  0  0  0  0  0  0  0  0  0  0  0
    2.1434   -1.4437    0.0000 C   0  0  0  0  0  0  0  0  0  0  0  0
    2.8578   -1.0312    0.0000 O   0  0  0  0  0  0  0  0  0  0  0  0
    3.5723   -1.4437    0.0000 C   0  0  0  0  0  0  0  0  0  0  0  0
    4.2868   -1.0312    0.0000 O   0  0  0  0  0  0  0  0  0  0  0  0
    5.0013   -1.4437    0.0000 C   0  0  0  0  0  0  0  0  0  0  0  0
    5.7157   -1.0312    0.0000 C   0  0  0  0  0  0  0  0  0  0  0  0
    5.0013   -2.2687    0.0000 C   0  0  0  0  0  0  0  0  0  0  0  0
    5.7157   -2.6812    0.0000 O   0  0  0  0  0  0  0  0  0  0  0  0
    4.2868   -2.6812    0.0000 C   0  0  0  0  0  0  0  0  0  0  0  0
    4.2868   -3.5062    0.0000 O   0  0  0  0  0  0  0  0  0  0  0  0
    3.5723   -2.2687    0.0000 C   0  0  0  0  0  0  0  0  0  0  0  0
    2.8578   -2.6812    0.0000 O   0  0  0  0  0  0  0  0  0  0  0  0
    0.7145   -1.4437    0.0000 C   0  0  0  0  0  0  0  0  0  0  0  0
    0.7145   -2.2687    0.0000 O   0  0  0  0  0  0  0  0  0  0  0  0
    0.0000   -1.0312    0.0000 C   0  0  0  0  0  0  0  0  0  0  0  0
   -0.7145   -1.4437    0.0000 O   0  0  0  0  0  0  0  0  0  0  0  0
    0.0000   -0.2062    0.0000 C   0  0  0  0  0  0  0  0  0  0  0  0
   -0.7145    0.2062    0.0000 O   0  0  0  0  0  0  0  0  0  0  0  0
   -0.7145    1.0312    0.0000 C   0  0  0  0  0  0  0  0  0  0  0  0
   -1.4290    1.4438    0.0000 C   0  0  0  0  0  0  0  0  0  0  0  0
   -2.1434    1.0312    0.0000 O   0  0  0  0  0  0  0  0  0  0  0  0
  1  2  1  0      
  2  3  1  0      
  3  4  2  0      
  4  5  1  0      
  5  6  1  0      
  4  7  1  0      
  7  8  2  0      
  8  9  1  0      
  9 10  2  0      
  3 10  1  0      
  8 11  1  0      
 11 12  1  0      
 12 13  1  0      
 13 14  2  0      
 13 15  1  0      
 15 16  2  0      
 16 17  1  0      
 16 18  1  0      
 18 19  2  0      
 19 20  1  0      
 20 21  1  0      
 21 22  1  0      
 22 23  1  0      
 23 24  1  0      
 24 25  1  0      
 25 26  1  0      
 26 27  1  0      
 27 28  1  0      
 28 29  1  0      
 28 30  1  0      
 30 31  1  0      
 30 32  1  0      
 32 33  1  0      
 32 34  1  0      
 26 34  1  0      
 34 35  1  0      
 23 36  1  0      
 36 37  1  0      
 36 38  1  0      
 38 39  1  0      
 38 40  1  0      
 21 40  1  0      
 40 41  1  0      
 19 42  1  0      
 42 43  2  0      
 15 43  1  0      
 43 44  1  0      
 11 44  1  0      
M  END
>  <Bioactivity>
Methyl Hesperidin is a flavanone glycoside (flavonoid) (C28H34O15) found abundantly in citrus fruits. Its aglycone form is called hesperetin.

>  <CAS>
11013-97-1

>  <Col>
6

>  <Formula>
C29H36O15

>  <ID>
T0228

>  <Index>
65

>  <MOLENAME>
Methyl hesperidin

>  <MolWt>
624.59

>  <Pathways>
PI3K/Akt/mTOR Signaling

>  <Plate>
PLATE 001

>  <QR code>
1152410876

>  <Receptor>
Akt; PKC

>  <Reference>
1. Nizamutdinova IT, et al. Int Immunopharmacol, 2008, 8(5), 670-678.

>  <Row>
G

>  <SMILES>
COC1=C(OC)C=C(C=C1)C1CC(=O)C2=C(O)C=C(OC3OC(COC4OC(C)C(O)C(O)C4O)C(O)C(O)C3O)C=C2O1

>  <Target>
Akt inhibitor; PKC inhibitor

>  <Weight>
10.1mg

$$$$
Lab-1.sdf
  ChemDraw05232018482D

 17 18  0  0  0  0  0  0  0  0999 V2000
   -1.7861    1.8562    0.0000 C   0  0  0  0  0  0  0  0  0  0  0  0
   -1.0718    1.4438    0.0000 O   0  0  0  0  0  0  0  0  0  0  0  0
   -1.0718    0.6188    0.0000 C   0  0  0  0  0  0  0  0  0  0  0  0
   -0.3573    0.2063    0.0000 C   0  0  0  0  0  0  0  0  0  0  0  0
   -0.3573   -0.6187    0.0000 C   0  0  0  0  0  0  0  0  0  0  0  0
   -1.0718   -1.0312    0.0000 C   0  0  0  0  0  0  0  0  0  0  0  0
   -1.7861   -0.6187    0.0000 C   0  0  0  0  0  0  0  0  0  0  0  0
   -1.7861    0.2063    0.0000 C   0  0  0  0  0  0  0  0  0  0  0  0
   -2.5006    0.6188    0.0000 O   0  0  0  0  0  0  0  0  0  0  0  0
    0.3572   -1.0312    0.0000 C   0  0  0  0  0  0  0  0  0  0  0  0
    0.3572   -1.8562    0.0000 S   0  0  0  0  0  0  0  0  0  0  0  0
    1.0716   -0.6187    0.0000 N   0  0  0  0  0  0  0  0  0  0  0  0
    1.0716    0.2063    0.0000 C   0  0  0  0  0  0  0  0  0  0  0  0
    1.7861    0.6188    0.0000 C   0  0  0  0  0  0  0  0  0  0  0  0
    2.5006    0.2063    0.0000 O   0  0  0  0  0  0  0  0  0  0  0  0
    2.5006   -0.6187    0.0000 C   0  0  0  0  0  0  0  0  0  0  0  0
    1.7861   -1.0312    0.0000 C   0  0  0  0  0  0  0  0  0  0  0  0
  1  2  1  0      
  2  3  1  0      
  3  4  2  0      
  4  5  1  0      
  5  6  1  0      
  6  7  2  0      
  7  8  1  0      
  3  8  1  0      
  8  9  2  0      
  5 10  2  0      
 10 11  1  4      
 10 12  1  0      
 12 13  1  0      
 13 14  1  0      
 14 15  1  0      
 15 16  1  0      
 16 17  1  0      
 12 17  1  0      
M  END
>  <Bioactivity>
Vanitiolide is a choleretics.

>  <CAS>
17692-71-6

>  <Col>
7

>  <Formula>
C12H15NO3S

>  <ID>
T0243

>  <Index>
66

>  <MOLENAME>
Vanitiolide

>  <MolWt>
253.32

>  <Pathways>
Others

>  <Plate>
PLATE 001

>  <QR code>
1152410875

>  <Receptor>
Others

>  <Reference>
1. QHTS Assay For Inhibitors Of Aldehyde Dehydrogenase 1 (ALDH1A1)

>  <Row>
G

>  <SMILES>
COC1=CC(C=CC1=O)=C(S)N1CCOCC1

>  <Target>
Others

>  <Weight>
10.5mg

$$$$
Lab-1.sdf
  ChemDraw05232018482D

 30 31  0  0  0  0  0  0  0  0999 V2000
   -0.2470    3.3000    0.0000 O   0  0  0  0  0  0  0  0  0  0  0  0
    2.1101    3.3000    0.0000 Na  0  3  0  0  0  0  0  0  0  0  0  0
   -2.1434    0.4125    0.0000 O   0  0  0  0  0  0  0  0  0  0  0  0
   -1.4290   -0.0000    0.0000 C   0  0  0  0  0  0  0  0  0  0  0  0
   -1.9139   -0.6674    0.0000 O   0  0  0  0  0  0  0  0  0  0  0  0
   -0.7145    0.4125    0.0000 C   0  0  0  0  0  0  0  0  0  0  0  0
   -0.7145    1.2375    0.0000 C   0  0  0  0  0  0  0  0  0  0  0  0
   -0.0000    1.6500    0.0000 C   0  0  0  0  0  0  0  0  0  0  0  0
    0.7144    1.2375    0.0000 C   0  0  0  0  0  0  0  0  0  0  0  0
    0.7144    0.4125    0.0000 C   0  0  0  0  0  0  0  0  0  0  0  0
   -0.0000   -0.0000    0.0000 C   0  0  0  0  0  0  0  0  0  0  0  0
   -0.0000   -0.8250    0.0000 C   0  0  0  0  0  0  0  0  0  0  0  0
    0.7144   -1.2375    0.0000 C   0  0  0  0  0  0  0  0  0  0  0  0
    1.4289   -0.8250    0.0000 C   0  0  0  0  0  0  0  0  0  0  0  0
    2.1434   -1.2375    0.0000 C   0  0  0  0  0  0  0  0  0  0  0  0
    2.8579   -0.8250    0.0000 Br  0  0  0  0  0  0  0  0  0  0  0  0
    2.1434   -2.0625    0.0000 C   0  0  0  0  0  0  0  0  0  0  0  0
    2.8579   -2.4750    0.0000 O   0  0  0  0  0  0  0  0  0  0  0  0
    1.4289   -2.4750    0.0000 C   0  0  0  0  0  0  0  0  0  0  0  0
    0.7144   -2.0625    0.0000 C   0  0  0  0  0  0  0  0  0  0  0  0
   -0.0000   -2.4750    0.0000 O   0  0  0  0  0  0  0  0  0  0  0  0
   -0.7145   -2.0625    0.0000 C   0  0  0  0  0  0  0  0  0  0  0  0
   -1.4290   -2.4750    0.0000 C   0  0  0  0  0  0  0  0  0  0  0  0
   -1.4290   -3.3000    0.0000 Hg  0  0  0  0  0  0  0  0  0  0  0  0
   -2.1434   -2.0625    0.0000 C   0  0  0  0  0  0  0  0  0  0  0  0
   -2.8579   -2.4750    0.0000 O   0  0  0  0  0  0  0  0  0  0  0  0
   -2.1434   -1.2375    0.0000 C   0  0  0  0  0  0  0  0  0  0  0  0
   -2.8579   -0.8250    0.0000 Br  0  0  0  0  0  0  0  0  0  0  0  0
   -1.4290   -0.8250    0.0000 C   0  0  0  0  0  0  0  0  0  0  0  0
   -0.7145   -1.2375    0.0000 C   0  0  0  0  0  0  0  0  0  0  0  0
  3  4  1  0      
  4  5  2  0      
  4  6  1  0      
  6  7  2  0      
  7  8  1  0      
  8  9  2  0      
  9 10  1  0      
 10 11  2  0      
  6 11  1  0      
 11 12  1  0      
 12 13  2  0      
 13 14  1  0      
 14 15  2  0      
 15 16  1  0      
 15 17  1  0      
 17 18  2  0      
 17 19  1  0      
 19 20  2  0      
 13 20  1  0      
 20 21  1  0      
 21 22  1  0      
 22 23  2  0      
 23 24  1  0      
 23 25  1  0      
 25 26  1  0      
 25 27  2  0      
 27 28  1  0      
 27 29  1  0      
 29 30  2  0      
 12 30  1  0      
 22 30  1  0      
M  CHG  1   2   1
M  END
>  <Bioactivity>
Merbromin is a topical antiseptic used for minor cuts and scrapes. Merbromin is an organomercuric disodium salt compound and a fluorescein.

>  <CAS>
129-16-8

>  <Col>
8

>  <Formula>
C20H8Br2HgNa2O6

>  <ID>
T0265

>  <Index>
67

>  <MOLENAME>
Merbromin

>  <MolWt>
750.65

>  <Pathways>
Others

>  <Plate>
PLATE 001

>  <QR code>
1152410874

>  <Receptor>
Others

>  <Reference>
1. Banerjee D, et al. Spectrochim Acta A Mol Biomol Spectrosc. 2008 Oct;70(5):1109-13.

>  <Row>
G

>  <SMILES>
O.[Na+].OC(=O)C1=CC=CC=C1C1=C2C=C(Br)C(=O)C=C2OC2=C([Hg])C(O)=C(Br)C=C12

>  <Target>
Others

>  <Weight>
10.1mg

$$$$
Lab-1.sdf
  ChemDraw05232018482D

 26 27  0  0  0  0  0  0  0  0999 V2000
    0.4878    3.3000    0.0000 O   0  0  0  0  0  0  0  0  0  0  0  0
    2.4914    3.3000    0.0000 Cl  0  0  0  0  0  0  0  0  0  0  0  0
   -3.2151   -2.0625    0.0000 C   0  0  0  0  0  0  0  0  0  0  0  0
   -2.5006   -1.6500    0.0000 O   0  0  0  0  0  0  0  0  0  0  0  0
   -1.7861   -2.0625    0.0000 C   0  0  0  0  0  0  0  0  0  0  0  0
   -1.0717   -1.6500    0.0000 C   0  0  0  0  0  0  0  0  0  0  0  0
   -0.3572   -2.0625    0.0000 C   0  0  0  0  0  0  0  0  0  0  0  0
    0.3573   -1.6500    0.0000 C   0  0  0  0  0  0  0  0  0  0  0  0
    1.0717   -2.0625    0.0000 C   0  0  0  0  0  0  0  0  0  0  0  0
    1.0717   -2.8875    0.0000 C   0  0  0  0  0  0  0  0  0  0  0  0
    0.3573   -3.3000    0.0000 N   0  0  0  0  0  0  0  0  0  0  0  0
   -0.3572   -2.8875    0.0000 C   0  0  0  0  0  0  0  0  0  0  0  0
   -1.0717   -3.3000    0.0000 C   0  0  0  0  0  0  0  0  0  0  0  0
   -1.7861   -2.8875    0.0000 C   0  0  0  0  0  0  0  0  0  0  0  0
    0.3573   -0.8250    0.0000 C   0  0  0  0  0  0  0  0  0  0  0  0
   -0.3572   -0.4125    0.0000 O   0  0  0  0  0  0  0  0  0  0  0  0
    1.0717   -0.4125    0.0000 C   0  0  0  0  0  0  0  0  0  0  0  0
    1.0717    0.4125    0.0000 C   0  0  0  0  0  0  0  0  0  0  0  0
    1.7862    0.8250    0.0000 C   0  0  0  0  0  0  0  0  0  0  0  0
    1.9237    0.2750    0.0000 C   0  0  0  0  0  0  0  0  0  0  0  0
    1.9237   -0.2750    0.0000 C   0  0  0  0  0  0  0  0  0  0  0  0
    1.7862   -0.8250    0.0000 N   0  0  0  0  0  0  0  0  0  0  0  0
    2.5007   -0.4125    0.0000 C   0  0  0  0  0  0  0  0  0  0  0  0
    2.5007    0.4125    0.0000 C   0  0  0  0  0  0  0  0  0  0  0  0
    3.2151    0.8250    0.0000 C   0  0  0  0  0  0  0  0  0  0  0  0
    3.2151    1.6500    0.0000 C   0  0  0  0  0  0  0  0  0  0  0  0
  3  4  1  0      
  4  5  1  0      
  5  6  2  0      
  6  7  1  0      
  7  8  2  0      
  8  9  1  0      
  9 10  2  0      
 10 11  1  0      
 11 12  2  0      
  7 12  1  0      
 12 13  1  0      
 13 14  2  0      
  5 14  1  0      
  8 15  1  0      
 15 16  1  0      
 15 17  1  0      
 17 18  1  0      
 18 19  1  0      
 19 20  1  0      
 20 21  1  0      
 21 22  1  0      
 17 22  1  0      
 22 23  1  0      
 23 24  1  0      
 19 24  1  0      
 24 25  1  0      
 25 26  2  0      
M  END
>  <Bioactivity>
An optical isomer of quinine, extracted from the bark of the Cinchona tree and similar plant species. This alkaloid dampens the excitability of cardiac and skeletal muscles by blocking sodium and pota
ssium currents across cellular membranes. It prolongs cellular action potential, and decreases automaticity. Quinidine also blocks muscarinic and alpha-adrenergic neurotransmission. 

>  <CAS>
6151-40-2

>  <Col>
9

>  <Formula>
C20H27ClN2O3

>  <ID>
T0266

>  <Index>
68

>  <MOLENAME>
Quinidine hydrochloride

>  <MolWt>
378.89

>  <Pathways>
Membrane Transporter/Ion Channel

>  <Plate>
PLATE 001

>  <QR code>
1152410873

>  <Receptor>
Potassium Channel ; Sodium channel

>  <Reference>
1. Stokoe KS, et al. J Physiol. 2007 Jan 1;578(Pt 1):69-84. 

>  <Row>
G

>  <SMILES>
O.Cl.COC1=CC2=C(C=CN=C2C=C1)C(O)C1CC2CCN1CC2C=C

>  <Target>
Potassium Channel inhibitor; Sodium Channel inhibitor

>  <Weight>
10.1mg

$$$$
Lab-1.sdf
  ChemDraw05232018482D

 30 33  0  0  0  0  0  0  0  0999 V2000
   -4.3472   -1.6588    0.0000 C   0  0  0  0  0  0  0  0  0  0  0  0
   -3.5351   -1.5136    0.0000 C   0  0  0  0  0  0  0  0  0  0  0  0
   -3.0032   -2.1443    0.0000 O   0  0  0  0  0  0  0  0  0  0  0  0
   -3.2548   -0.7377    0.0000 O   0  0  0  0  0  0  0  0  0  0  0  0
   -2.4427   -0.5924    0.0000 C   0  0  0  0  0  0  0  0  0  0  0  0
   -2.1624    0.1836    0.0000 C   0  0  0  0  0  0  0  0  0  0  0  0
   -2.6942    0.8143    0.0000 O   0  0  0  0  0  0  0  0  0  0  0  0
   -1.3501    0.3288    0.0000 C   0  0  0  0  0  0  0  0  0  0  0  0
   -1.2906   -0.4941    0.0000 O   0  0  0  0  0  0  0  0  0  0  0  0
   -1.5794    1.1213    0.0000 C   0  0  0  0  0  0  0  0  0  0  0  0
   -0.8966    1.5843    0.0000 C   0  0  0  0  0  0  0  0  0  0  0  0
   -0.2453    1.0779    0.0000 C   0  0  0  0  0  0  0  0  0  0  0  0
    0.5669    1.2231    0.0000 C   0  0  0  0  0  0  0  0  0  0  0  0
    0.8471    1.9991    0.0000 C   0  0  0  0  0  0  0  0  0  0  0  0
    1.6593    2.1443    0.0000 C   0  0  0  0  0  0  0  0  0  0  0  0
    2.1912    1.5136    0.0000 C   0  0  0  0  0  0  0  0  0  0  0  0
    3.0033    1.6588    0.0000 C   0  0  0  0  0  0  0  0  0  0  0  0
    3.5351    1.0281    0.0000 C   0  0  0  0  0  0  0  0  0  0  0  0
    4.3472    1.1733    0.0000 O   0  0  0  0  0  0  0  0  0  0  0  0
    3.2548    0.2521    0.0000 C   0  0  0  0  0  0  0  0  0  0  0  0
    2.4427    0.1069    0.0000 C   0  0  0  0  0  0  0  0  0  0  0  0
    1.9108    0.7376    0.0000 C   0  0  0  0  0  0  0  0  0  0  0  0
    1.6305   -0.0384    0.0000 C   0  0  0  0  0  0  0  0  0  0  0  0
    1.0987    0.5924    0.0000 C   0  0  0  0  0  0  0  0  0  0  0  0
    1.1582   -0.2305    0.0000 Cl  0  0  0  0  0  0  0  0  0  0  0  0
    0.8184   -0.1836    0.0000 C   0  0  0  0  0  0  0  0  0  0  0  0
    1.3502   -0.8143    0.0000 Cl  0  0  0  0  0  0  0  0  0  0  0  0
    0.0063   -0.3288    0.0000 C   0  0  0  0  0  0  0  0  0  0  0  0
   -0.5256    0.3020    0.0000 C   0  0  0  0  0  0  0  0  0  0  0  0
   -0.8854   -0.4405    0.0000 C   0  0  0  0  0  0  0  0  0  0  0  0
  1  2  1  0      
  2  3  2  0      
  2  4  1  0      
  4  5  1  0      
  5  6  1  0      
  6  7  2  0      
  6  8  1  0      
  8  9  1  0      
  8 10  1  0      
 10 11  1  0      
 11 12  1  0      
 12 13  1  0      
 13 14  1  0      
 14 15  1  0      
 15 16  1  0      
 16 17  2  0      
 17 18  1  0      
 18 19  2  0      
 18 20  1  0      
 20 21  2  0      
 21 22  1  0      
 16 22  1  0      
 22 23  1  0      
 22 24  1  0      
 13 24  1  0      
 24 25  1  0      
 24 26  1  0      
 26 27  1  0      
 26 28  1  0      
 28 29  1  0      
  8 29  1  0      
 12 29  1  0      
 29 30  1  0      
M  END
>  <Bioactivity>
It belongs to organophosphate compounds,  used as a kind of common environmental health insecticide.

>  <CAS>
79-61-8

>  <Col>
10

>  <Formula>
C23H28Cl2O5

>  <ID>
T0269

>  <Index>
69

>  <MOLENAME>
Dichlorisone Acetate

>  <MolWt>
455.4

>  <Pathways>
Neuroscience

>  <Plate>
PLATE 001

>  <QR code>
1152410872

>  <Receptor>
AChE

>  <Reference>
1. JEANDIDIER P. Ann Med Nancy. 1964 Aug-Sep;42:1062-5.

>  <Row>
G

>  <SMILES>
CC(=O)OCC(=O)C1(O)CCC2C3CCC4=CC(=O)C=CC4(C)C3(Cl)C(Cl)CC12C

>  <Target>
AChE inhibitor

>  <Weight>
10.2mg

$$$$
Lab-1.sdf
  ChemDraw05232018482D

 79 86  0  0  0  0  0  0  0  0999 V2000
   -7.9612    0.4102    0.0000 C   0  0  0  0  0  0  0  0  0  0  0  0
   -7.1362    0.4102    0.0000 C   0  0  0  0  0  0  0  0  0  0  0  0
   -6.7237   -0.3042    0.0000 C   0  0  0  0  0  0  0  0  0  0  0  0
   -7.1362   -1.0187    0.0000 C   0  0  0  0  0  0  0  0  0  0  0  0
   -5.8987   -0.3042    0.0000 C   0  0  0  0  0  0  0  0  0  0  0  0
   -5.4862    0.4102    0.0000 O   0  0  0  0  0  0  0  0  0  0  0  0
   -5.4862   -1.0187    0.0000 O   0  0  0  0  0  0  0  0  0  0  0  0
   -4.6612   -1.0187    0.0000 C   0  0  0  0  0  0  0  0  0  0  0  0
   -4.2487   -1.7332    0.0000 C   0  0  0  0  0  0  0  0  0  0  0  0
   -4.6612   -2.4476    0.0000 O   0  0  0  0  0  0  0  0  0  0  0  0
   -5.4862   -2.4476    0.0000 C   0  0  0  0  0  0  0  0  0  0  0  0
   -5.8987   -1.7332    0.0000 C   0  0  0  0  0  0  0  0  0  0  0  0
   -5.8987   -3.1621    0.0000 O   0  0  0  0  0  0  0  0  0  0  0  0
   -3.4237   -1.7332    0.0000 C   0  0  0  0  0  0  0  0  0  0  0  0
   -3.8362   -2.4476    0.0000 C   0  0  0  0  0  0  0  0  0  0  0  0
   -3.4237   -3.1621    0.0000 O   0  0  0  0  0  0  0  0  0  0  0  0
   -3.0112   -2.4476    0.0000 C   0  0  0  0  0  0  0  0  0  0  0  0
   -2.9250   -3.2681    0.0000 O   0  0  0  0  0  0  0  0  0  0  0  0
   -2.1862   -2.4476    0.0000 C   0  0  0  0  0  0  0  0  0  0  0  0
   -1.7737   -1.7332    0.0000 C   0  0  0  0  0  0  0  0  0  0  0  0
   -1.3612   -2.4476    0.0000 C   0  0  0  0  0  0  0  0  0  0  0  0
   -2.1862   -1.0187    0.0000 C   0  0  0  0  0  0  0  0  0  0  0  0
   -1.7737   -0.3042    0.0000 C   0  0  0  0  0  0  0  0  0  0  0  0
   -0.9487   -0.3042    0.0000 C   0  0  0  0  0  0  0  0  0  0  0  0
   -0.5362   -1.0187    0.0000 C   0  0  0  0  0  0  0  0  0  0  0  0
    0.2887   -1.0187    0.0000 C   0  0  0  0  0  0  0  0  0  0  0  0
   -0.1238   -0.3042    0.0000 C   0  0  0  0  0  0  0  0  0  0  0  0
    0.7012   -0.3042    0.0000 C   0  0  0  0  0  0  0  0  0  0  0  0
    1.5262   -0.3042    0.0000 C   0  0  0  0  0  0  0  0  0  0  0  0
    1.9387   -1.0187    0.0000 C   0  0  0  0  0  0  0  0  0  0  0  0
    2.7637   -1.0187    0.0000 O   0  0  0  0  0  0  0  0  0  0  0  0
    3.1762   -0.3042    0.0000 C   0  0  0  0  0  0  0  0  0  0  0  0
    2.7637    0.4102    0.0000 O   0  0  0  0  0  0  0  0  0  0  0  0
    3.1762    1.1247    0.0000 C   0  0  0  0  0  0  0  0  0  0  0  0
    4.0012    1.1247    0.0000 C   0  0  0  0  0  0  0  0  0  0  0  0
    4.4137    1.8392    0.0000 O   0  0  0  0  0  0  0  0  0  0  0  0
    5.2387    1.8392    0.0000 C   0  0  0  0  0  0  0  0  0  0  0  0
    5.6512    1.1247    0.0000 O   0  0  0  0  0  0  0  0  0  0  0  0
    6.4762    1.1247    0.0000 C   0  0  0  0  0  0  0  0  0  0  0  0
    7.1362    0.6577    0.0000 C   0  0  0  0  0  0  0  0  0  0  0  0
    7.9612    0.6577    0.0000 O   0  0  0  0  0  0  0  0  0  0  0  0
    6.8887    1.8392    0.0000 C   0  0  0  0  0  0  0  0  0  0  0  0
    7.7137    1.8392    0.0000 O   0  0  0  0  0  0  0  0  0  0  0  0
    6.4762    2.5537    0.0000 C   0  0  0  0  0  0  0  0  0  0  0  0
    6.8887    3.2681    0.0000 O   0  0  0  0  0  0  0  0  0  0  0  0
    5.6512    2.5537    0.0000 C   0  0  0  0  0  0  0  0  0  0  0  0
    5.2387    3.2681    0.0000 O   0  0  0  0  0  0  0  0  0  0  0  0
    4.4137    0.4102    0.0000 C   0  0  0  0  0  0  0  0  0  0  0  0
    5.2387    0.4102    0.0000 O   0  0  0  0  0  0  0  0  0  0  0  0
    4.0012   -0.3042    0.0000 C   0  0  0  0  0  0  0  0  0  0  0  0
    4.4137   -1.0187    0.0000 O   0  0  0  0  0  0  0  0  0  0  0  0
    5.2387   -1.0187    0.0000 C   0  0  0  0  0  0  0  0  0  0  0  0
    5.6512   -0.3042    0.0000 O   0  0  0  0  0  0  0  0  0  0  0  0
    6.4762   -0.3042    0.0000 C   0  0  0  0  0  0  0  0  0  0  0  0
    6.8887    0.4102    0.0000 C   0  0  0  0  0  0  0  0  0  0  0  0
    7.7137    0.4102    0.0000 O   0  0  0  0  0  0  0  0  0  0  0  0
    6.8887   -1.0187    0.0000 C   0  0  0  0  0  0  0  0  0  0  0  0
    7.7137   -1.0187    0.0000 O   0  0  0  0  0  0  0  0  0  0  0  0
    6.4762   -1.7332    0.0000 C   0  0  0  0  0  0  0  0  0  0  0  0
    6.8887   -2.4476    0.0000 O   0  0  0  0  0  0  0  0  0  0  0  0
    5.6512   -1.7332    0.0000 C   0  0  0  0  0  0  0  0  0  0  0  0
    5.2387   -2.4476    0.0000 O   0  0  0  0  0  0  0  0  0  0  0  0
    2.7637    1.8392    0.0000 C   0  0  0  0  0  0  0  0  0  0  0  0
    3.1762    2.5537    0.0000 O   0  0  0  0  0  0  0  0  0  0  0  0
    1.9387    1.8392    0.0000 O   0  0  0  0  0  0  0  0  0  0  0  0
    1.5262   -1.7332    0.0000 C   0  0  0  0  0  0  0  0  0  0  0  0
    1.3829   -2.5456    0.0000 C   0  0  0  0  0  0  0  0  0  0  0  0
    2.3014   -2.0153    0.0000 C   0  0  0  0  0  0  0  0  0  0  0  0
    2.4447   -2.8278    0.0000 O   0  0  0  0  0  0  0  0  0  0  0  0
    0.7012   -1.7332    0.0000 C   0  0  0  0  0  0  0  0  0  0  0  0
    0.2887   -2.4476    0.0000 C   0  0  0  0  0  0  0  0  0  0  0  0
   -0.5362   -2.4476    0.0000 C   0  0  0  0  0  0  0  0  0  0  0  0
   -0.9487   -1.7332    0.0000 C   0  0  0  0  0  0  0  0  0  0  0  0
   -0.8625   -2.5537    0.0000 C   0  0  0  0  0  0  0  0  0  0  0  0
   -3.0112   -1.0187    0.0000 C   0  0  0  0  0  0  0  0  0  0  0  0
   -3.4237   -0.3042    0.0000 C   0  0  0  0  0  0  0  0  0  0  0  0
   -4.2487   -0.3042    0.0000 C   0  0  0  0  0  0  0  0  0  0  0  0
   -4.2775    0.5203    0.0000 C   0  0  0  0  0  0  0  0  0  0  0  0
   -4.9484    0.1330    0.0000 C   0  0  0  0  0  0  0  0  0  0  0  0
  2  1  1  4      
  2  3  2  0      
  3  4  1  0      
  3  5  1  0      
  5  6  2  0      
  5  7  1  0      
  7  8  1  0      
  8  9  1  0      
  9 10  1  0      
 10 11  1  0      
 11 12  1  0      
 11 13  2  0      
  9 14  1  0      
 14 15  1  0      
 15 16  1  0      
 14 17  1  0      
 17 18  1  0      
 17 19  1  0      
 19 20  1  0      
 20 21  1  0      
 20 22  1  0      
 22 23  2  0      
 23 24  1  0      
 24 25  1  0      
 25 26  1  0      
 26 27  1  0      
 26 28  1  0      
 28 29  1  0      
 29 30  1  0      
 30 31  1  0      
 31 32  1  0      
 32 33  1  0      
 33 34  1  0      
 34 35  1  0      
 35 36  1  0      
 36 37  1  0      
 37 38  1  0      
 38 39  1  0      
 39 40  1  0      
 40 41  1  0      
 39 42  1  0      
 42 43  1  0      
 42 44  1  0      
 44 45  1  0      
 44 46  1  0      
 37 46  1  0      
 46 47  1  0      
 35 48  1  0      
 48 49  1  0      
 48 50  1  0      
 32 50  1  0      
 50 51  1  0      
 51 52  1  0      
 52 53  1  0      
 53 54  1  0      
 54 55  1  0      
 55 56  1  0      
 54 57  1  0      
 57 58  1  0      
 57 59  1  0      
 59 60  1  0      
 59 61  1  0      
 52 61  1  0      
 61 62  1  0      
 34 63  1  0      
 63 64  1  0      
 63 65  2  0      
 30 66  1  0      
 66 67  1  0      
 66 68  1  0      
 68 69  1  0      
 66 70  1  0      
 26 70  1  0      
 70 71  1  0      
 71 72  1  0      
 72 73  1  0      
 20 73  1  0      
 25 73  1  0      
 73 74  1  0      
 22 75  1  0      
 14 75  1  0      
 75 76  1  0      
 76 77  1  0      
  8 77  1  0      
 77 78  1  0      
 77 79  1  0      
M  END
>  <Bioactivity>
Pentacyclic triterpene saponins, biosynthesized from protoaescigenin and barringtogenol, occurring in the seeds of AESCULUS. It inhibits edema formation and decreases vascular fragility.  

>  <CAS>
6805-41-0

>  <Col>
11

>  <Formula>
C55H86O24

>  <ID>
T0278

>  <Index>
70

>  <MOLENAME>
Escin

>  <MolWt>
1131.28

>  <Pathways>
Others

>  <Plate>
PLATE 001

>  <QR code>
1152410871

>  <Receptor>
Others

>  <Reference>
1. Yu Z, Su P. Pharmazie. 2013 Jun;68(6):428-30.

>  <Row>
G

>  <SMILES>
CC=C(C)C(=O)OC1C(OC(C)=O)C2(CO)C(O)CC3(C)C(=CCC4C5(C)CCC(OC6OC(C(OC7OC(CO)C(O)C(O)C7O)C(O)C6OC6OC(CO)C(O)C(O)C6O)C(O)=O)C(C)(CO)C5CCC34C)C2CC1(C)C

>  <Target>
Others

>  <Weight>
10.2mg

$$$$
Lab-1.sdf
  ChemDraw05232018482D

 54 61  0  0  0  0  0  0  0  0999 V2000
   -1.1322    5.0868    0.0000 C   0  0  0  0  0  0  0  0  0  0  0  0
   -0.6004    4.4561    0.0000 C   0  0  0  0  0  0  0  0  0  0  0  0
    0.2118    4.6013    0.0000 O   0  0  0  0  0  0  0  0  0  0  0  0
    0.7436    3.9706    0.0000 C   0  0  0  0  0  0  0  0  0  0  0  0
    0.4633    3.1946    0.0000 C   0  0  0  0  0  0  0  0  0  0  0  0
   -0.3489    3.0494    0.0000 C   0  0  0  0  0  0  0  0  0  0  0  0
   -0.6292    2.2735    0.0000 O   0  0  0  0  0  0  0  0  0  0  0  0
   -0.8807    3.6801    0.0000 C   0  0  0  0  0  0  0  0  0  0  0  0
   -1.6928    3.5349    0.0000 O   0  0  0  0  0  0  0  0  0  0  0  0
    1.5558    4.1159    0.0000 O   0  0  0  0  0  0  0  0  0  0  0  0
    2.0876    3.4850    0.0000 C   0  0  0  0  0  0  0  0  0  0  0  0
    2.8997    3.6303    0.0000 C   0  0  0  0  0  0  0  0  0  0  0  0
    3.1800    4.4063    0.0000 O   0  0  0  0  0  0  0  0  0  0  0  0
    3.4315    2.9996    0.0000 C   0  0  0  0  0  0  0  0  0  0  0  0
    3.1512    2.2236    0.0000 C   0  0  0  0  0  0  0  0  0  0  0  0
    3.6830    1.5929    0.0000 O   0  0  0  0  0  0  0  0  0  0  0  0
    3.4027    0.8170    0.0000 C   0  0  0  0  0  0  0  0  0  0  0  0
    3.9347    0.1863    0.0000 C   0  0  0  0  0  0  0  0  0  0  0  0
    4.7468    0.3315    0.0000 O   0  0  0  0  0  0  0  0  0  0  0  0
    3.6543   -0.5897    0.0000 C   0  0  0  0  0  0  0  0  0  0  0  0
    2.8421   -0.7349    0.0000 C   0  0  0  0  0  0  0  0  0  0  0  0
    2.5618   -1.5109    0.0000 O   0  0  0  0  0  0  0  0  0  0  0  0
    1.7497   -1.6561    0.0000 C   0  0  0  0  0  0  0  0  0  0  0  0
    1.4694   -2.4320    0.0000 C   0  0  0  0  0  0  0  0  0  0  0  0
    0.6573   -2.5772    0.0000 C   0  0  0  0  0  0  0  0  0  0  0  0
    0.1255   -1.9465    0.0000 C   0  0  0  0  0  0  0  0  0  0  0  0
   -0.1549   -2.7224    0.0000 C   0  0  0  0  0  0  0  0  0  0  0  0
    0.4058   -1.1706    0.0000 C   0  0  0  0  0  0  0  0  0  0  0  0
   -0.1261   -0.5399    0.0000 C   0  0  0  0  0  0  0  0  0  0  0  0
   -0.9382   -0.6851    0.0000 C   0  0  0  0  0  0  0  0  0  0  0  0
   -1.2185   -1.4610    0.0000 C   0  0  0  0  0  0  0  0  0  0  0  0
   -0.6867   -2.0917    0.0000 C   0  0  0  0  0  0  0  0  0  0  0  0
   -0.9670   -2.8677    0.0000 C   0  0  0  0  0  0  0  0  0  0  0  0
   -1.7791   -3.0129    0.0000 C   0  0  0  0  0  0  0  0  0  0  0  0
   -2.3110   -2.3822    0.0000 C   0  0  0  0  0  0  0  0  0  0  0  0
   -2.6708   -3.1245    0.0000 C   0  0  0  0  0  0  0  0  0  0  0  0
   -3.1355   -2.3554    0.0000 C   0  0  0  0  0  0  0  0  0  0  0  0
   -3.3648   -1.5629    0.0000 C   0  0  0  0  0  0  0  0  0  0  0  0
   -2.6820   -1.0999    0.0000 C   0  0  0  0  0  0  0  0  0  0  0  0
   -2.0307   -1.6062    0.0000 C   0  0  0  0  0  0  0  0  0  0  0  0
   -1.8330   -0.8053    0.0000 O   0  0  0  0  0  0  0  0  0  0  0  0
   -3.6419   -3.0067    0.0000 C   0  0  0  0  0  0  0  0  0  0  0  0
   -3.4126   -3.7992    0.0000 C   0  0  0  0  0  0  0  0  0  0  0  0
   -4.0955   -4.2623    0.0000 C   0  0  0  0  0  0  0  0  0  0  0  0
   -4.1223   -5.0868    0.0000 O   0  0  0  0  0  0  0  0  0  0  0  0
   -4.7468   -3.7558    0.0000 O   0  0  0  0  0  0  0  0  0  0  0  0
   -4.4665   -2.9799    0.0000 C   0  0  0  0  0  0  0  0  0  0  0  0
    1.2179   -1.0254    0.0000 C   0  0  0  0  0  0  0  0  0  0  0  0
    2.3103   -0.1042    0.0000 O   0  0  0  0  0  0  0  0  0  0  0  0
    2.5906    0.6718    0.0000 C   0  0  0  0  0  0  0  0  0  0  0  0
    2.0588    1.3025    0.0000 C   0  0  0  0  0  0  0  0  0  0  0  0
    2.3391    2.0784    0.0000 O   0  0  0  0  0  0  0  0  0  0  0  0
    1.8073    2.7091    0.0000 C   0  0  0  0  0  0  0  0  0  0  0  0
    0.9952    2.5639    0.0000 C   0  0  0  0  0  0  0  0  0  0  0  0
  1  2  1  0      
  2  3  1  0      
  3  4  1  0      
  4  5  1  0      
  5  6  1  0      
  6  7  1  0      
  6  8  1  0      
  2  8  1  0      
  8  9  1  0      
  4 10  1  0      
 10 11  1  0      
 11 12  1  0      
 12 13  1  0      
 12 14  1  0      
 14 15  1  0      
 15 16  1  0      
 16 17  1  0      
 17 18  1  0      
 18 19  1  0      
 18 20  1  0      
 20 21  1  0      
 21 22  1  0      
 22 23  1  0      
 23 24  1  0      
 24 25  1  0      
 25 26  1  0      
 26 27  1  0      
 26 28  1  0      
 28 29  1  0      
 29 30  1  0      
 30 31  1  0      
 31 32  1  0      
 26 32  1  0      
 32 33  1  0      
 33 34  1  0      
 34 35  1  0      
 35 36  1  0      
 35 37  1  0      
 37 38  1  0      
 38 39  1  0      
 39 40  1  0      
 31 40  1  0      
 35 40  1  0      
 40 41  1  0      
 37 42  1  0      
 42 43  2  0      
 43 44  1  0      
 44 45  2  0      
 44 46  1  0      
 46 47  1  0      
 42 47  1  0      
 28 48  1  0      
 23 48  1  0      
 21 49  1  0      
 49 50  1  0      
 17 50  1  0      
 50 51  1  0      
 15 52  1  0      
 52 53  1  0      
 11 53  1  0      
 53 54  1  0      
M  END
>  <Bioactivity>
Digitoxin is an effective Na+/K+-ATPase inhibitor, the EC50 value of Digitoxin is 0.78 &mu;M. 

>  <CAS>
71-63-6

>  <Col>
2

>  <Formula>
C41H64O13

>  <ID>
T0295

>  <Index>
71

>  <MOLENAME>
Digitoxin

>  <MolWt>
764.94

>  <Pathways>
Membrane Transporter/Ion Channel

>  <Plate>
PLATE 001

>  <QR code>
1152410859

>  <Receptor>
organic anion transporter

>  <Reference>
1. Bossuyt X, et al. J Pharmacol Exp Ther. 1996 Mar;276(3):891-6. 

>  <Row>
H

>  <SMILES>
CC1OC(CC(O)C1O)OC1C(O)CC(OC2C(O)CC(OC3CCC4(C)C(CCC5C4CCC4(C)C(CCC54O)C4=CC(=O)OC4)C3)OC2C)OC1C

>  <Target>
Others

>  <Weight>
10.2mg

$$$$
Lab-1.sdf
  ChemDraw05232018482D

 29 31  0  0  0  0  0  0  0  0999 V2000
    3.4552    0.3453    0.0000 C   0  0  0  0  0  0  0  0  0  0  0  0
    2.9189    0.9722    0.0000 O   0  0  0  0  0  0  0  0  0  0  0  0
    2.1078    0.8212    0.0000 C   0  0  0  0  0  0  0  0  0  0  0  0
    1.5715    1.4481    0.0000 C   0  0  0  0  0  0  0  0  0  0  0  0
    1.8462    2.2260    0.0000 O   0  0  0  0  0  0  0  0  0  0  0  0
    1.3099    2.8529    0.0000 C   0  0  0  0  0  0  0  0  0  0  0  0
    0.7604    1.2971    0.0000 C   0  0  0  0  0  0  0  0  0  0  0  0
    0.2241    1.9240    0.0000 O   0  0  0  0  0  0  0  0  0  0  0  0
    0.4989    2.7019    0.0000 C   0  0  0  0  0  0  0  0  0  0  0  0
    0.4857    0.5192    0.0000 C   0  0  0  0  0  0  0  0  0  0  0  0
    1.0220   -0.1077    0.0000 C   0  0  0  0  0  0  0  0  0  0  0  0
    0.8663   -0.9180    0.0000 C   0  0  0  0  0  0  0  0  0  0  0  0
    0.1358   -1.3013    0.0000 C   0  0  0  0  0  0  0  0  0  0  0  0
   -0.6194   -0.9692    0.0000 C   0  0  0  0  0  0  0  0  0  0  0  0
   -1.2463   -1.5056    0.0000 N   0  0  0  0  0  0  0  0  0  0  0  0
   -1.0953   -2.3166    0.0000 C   0  0  0  0  0  0  0  0  0  0  0  0
   -0.3174   -2.5914    0.0000 C   0  0  0  0  0  0  0  0  0  0  0  0
   -1.7222   -2.8529    0.0000 O   0  0  0  0  0  0  0  0  0  0  0  0
   -0.8306   -0.1717    0.0000 C   0  0  0  0  0  0  0  0  0  0  0  0
   -1.6552   -0.2002    0.0000 C   0  0  0  0  0  0  0  0  0  0  0  0
   -2.1915    0.4268    0.0000 C   0  0  0  0  0  0  0  0  0  0  0  0
   -2.9890    0.2156    0.0000 O   0  0  0  0  0  0  0  0  0  0  0  0
   -2.0357    1.2370    0.0000 C   0  0  0  0  0  0  0  0  0  0  0  0
   -2.6981    1.7288    0.0000 O   0  0  0  0  0  0  0  0  0  0  0  0
   -3.4552    1.4011    0.0000 C   0  0  0  0  0  0  0  0  0  0  0  0
   -1.3052    1.6204    0.0000 C   0  0  0  0  0  0  0  0  0  0  0  0
   -0.5500    1.2882    0.0000 C   0  0  0  0  0  0  0  0  0  0  0  0
   -0.3388    0.4907    0.0000 C   0  0  0  0  0  0  0  0  0  0  0  0
    1.8331    0.0432    0.0000 C   0  0  0  0  0  0  0  0  0  0  0  0
  1  2  1  0      
  2  3  1  0      
  3  4  2  0      
  4  5  1  0      
  5  6  1  0      
  4  7  1  0      
  7  8  1  0      
  8  9  1  0      
  7 10  2  0      
 10 11  1  0      
 11 12  1  0      
 12 13  1  0      
 13 14  1  0      
 14 15  1  0      
 15 16  1  0      
 16 17  1  0      
 16 18  2  0      
 14 19  1  0      
 19 20  2  0      
 20 21  1  0      
 21 22  2  0      
 21 23  1  0      
 23 24  1  0      
 24 25  1  0      
 23 26  2  0      
 26 27  1  0      
 27 28  2  0      
 10 28  1  0      
 19 28  1  0      
 11 29  2  0      
  3 29  1  0      
M  END
>  <Bioactivity>
Colchicine is a tubulin inhibitor, it blocks polymerization of microtubules by binding to tubulin (IC50 = 3.2 ¦ÌM).

>  <CAS>
64-86-8

>  <Col>
3

>  <Formula>
C22H25NO6

>  <ID>
T0320

>  <Index>
72

>  <MOLENAME>
Colchicine

>  <MolWt>
399.44

>  <Pathways>
Cell Cycle/Checkpoint

>  <Plate>
PLATE 001

>  <QR code>
1152410860

>  <Receptor>
Tubulin beta chain

>  <Reference>
1. Yee KW, et al. Clin Y Res. 2005 Sep 15;11(18):6615-24.

>  <Row>
H

>  <SMILES>
COC1=C(OC)C(OC)=C2C(CCC(NC(C)=O)C3=CC(=O)C(OC)=CC=C23)=C1

>  <Target>
Microtubule Associated inhibitor

>  <Weight>
10.4mg

$$$$
Lab-1.sdf
  ChemDraw05232018482D

 10  9  0  0  0  0  0  0  0  0999 V2000
    0.7144    1.0312    0.0000 N   0  0  0  0  0  0  0  0  0  0  0  0
    0.7144    0.2062    0.0000 C   0  0  0  0  0  0  0  0  0  0  0  0
   -0.0001   -0.2062    0.0000 C   0  0  0  0  0  0  0  0  0  0  0  0
   -0.7144    0.2062    0.0000 C   0  0  0  0  0  0  0  0  0  0  0  0
   -1.4289   -0.2062    0.0000 C   0  0  0  0  0  0  0  0  0  0  0  0
   -2.1434    0.2062    0.0000 N   0  0  0  0  0  0  0  0  0  0  0  0
   -1.4289   -1.0312    0.0000 O   0  0  0  0  0  0  0  0  0  0  0  0
    1.4289   -0.2062    0.0000 C   0  0  0  0  0  0  0  0  0  0  0  0
    2.1434    0.2062    0.0000 O   0  0  0  0  0  0  0  0  0  0  0  0
    1.4289   -1.0312    0.0000 O   0  0  0  0  0  0  0  0  0  0  0  0
  1  2  1  0      
  2  3  1  0      
  3  4  1  0      
  4  5  1  0      
  5  6  1  0      
  5  7  2  0      
  2  8  1  0      
  8  9  1  0      
  8 10  2  0      
M  END
>  <Bioactivity>
A non-essential amino acid present abundantly throughout the body and is involved in many metabolic processes. It is synthesized from glutamic acid and ammonia. It is the principal carrier of nitrogen
 in the body and is an important energy source for many cells. 

>  <CAS>
6899-04-3

>  <Col>
4

>  <Formula>
C5H10N2O3

>  <ID>
T0326

>  <Index>
73

>  <MOLENAME>
DL-Glutamine

>  <MolWt>
146.15

>  <Pathways>
Amino Acids & Building Blocks

>  <Plate>
PLATE 001

>  <QR code>
1152410861

>  <Receptor>
Amino Acids and Derivatives

>  <Reference>
1. Mong JA, Blutstein T. Neuroscience. 2006; 138(3):967-75. 

>  <Row>
H

>  <SMILES>
NC(CCC(N)=O)C(O)=O

>  <Target>
Amino Acids and Derivatives

>  <Weight>
10.1mg

$$$$
Lab-1.sdf
  ChemDraw05232018482D

 12 11  0  0  0  0  0  0  0  0999 V2000
   -2.5006   -0.2062    0.0000 O   0  0  0  0  0  0  0  0  0  0  0  0
   -1.7862    0.2063    0.0000 C   0  0  0  0  0  0  0  0  0  0  0  0
   -1.0718   -0.2062    0.0000 C   0  0  0  0  0  0  0  0  0  0  0  0
   -1.0718   -1.0312    0.0000 O   0  0  0  0  0  0  0  0  0  0  0  0
   -0.3573    0.2063    0.0000 C   0  0  0  0  0  0  0  0  0  0  0  0
   -0.3573    1.0312    0.0000 O   0  0  0  0  0  0  0  0  0  0  0  0
    0.3571   -0.2062    0.0000 C   0  0  0  0  0  0  0  0  0  0  0  0
    0.3571   -1.0312    0.0000 O   0  0  0  0  0  0  0  0  0  0  0  0
    1.0716    0.2063    0.0000 C   0  0  0  0  0  0  0  0  0  0  0  0
    1.0716    1.0312    0.0000 O   0  0  0  0  0  0  0  0  0  0  0  0
    1.7861   -0.2062    0.0000 C   0  0  0  0  0  0  0  0  0  0  0  0
    2.5006    0.2063    0.0000 O   0  0  0  0  0  0  0  0  0  0  0  0
  1  2  1  0      
  2  3  1  0      
  3  4  1  0      
  3  5  1  0      
  5  6  1  0      
  5  7  1  0      
  7  8  1  0      
  7  9  1  0      
  9 10  1  0      
  9 11  1  0      
 11 12  1  0      
M  END
>  <Bioactivity>
D-Sorbitol is a sugar alcohol that is commonly used as a sugar substitute. 

>  <CAS>
50-70-4

>  <Col>
5

>  <Formula>
C6H14O6

>  <ID>
T0332

>  <Index>
74

>  <MOLENAME>
D-Sorbitol

>  <MolWt>
182.17

>  <Pathways>
Others

>  <Plate>
PLATE 001

>  <QR code>
1152410862

>  <Receptor>
Xylose isomerase; Malate synthase G

>  <Reference>
1. Kim JH, et al. Appl Biochem Biotechnol. 2015 Mar 27.

>  <Row>
H

>  <SMILES>
OCC(O)C(O)C(O)C(O)CO

>  <Target>
Others

>  <Weight>
10.3mg

$$$$
Lab-1.sdf
  ChemDraw05232018482D

 12 11  0  0  0  0  0  0  0  0999 V2000
   -1.8930    0.0187    0.0000 Cl  0  0  0  0  0  0  0  0  0  0  0  0
    0.4640    2.2687    0.0000 N   0  0  0  0  0  0  0  0  0  0  0  0
    0.4640    1.4437    0.0000 C   0  0  0  0  0  0  0  0  0  0  0  0
    1.1785    1.0312    0.0000 C   0  0  0  0  0  0  0  0  0  0  0  0
    1.8930    1.4437    0.0000 O   0  0  0  0  0  0  0  0  0  0  0  0
    1.1785    0.2062    0.0000 C   0  0  0  0  0  0  0  0  0  0  0  0
    1.8930   -0.2062    0.0000 C   0  0  0  0  0  0  0  0  0  0  0  0
    1.8930   -1.0312    0.0000 C   0  0  0  0  0  0  0  0  0  0  0  0
    1.1785   -1.4437    0.0000 C   0  0  0  0  0  0  0  0  0  0  0  0
    1.1785   -2.2687    0.0000 O   0  0  0  0  0  0  0  0  0  0  0  0
    0.4640   -1.0312    0.0000 C   0  0  0  0  0  0  0  0  0  0  0  0
    0.4640   -0.2062    0.0000 C   0  0  0  0  0  0  0  0  0  0  0  0
  2  3  1  0      
  3  4  1  0      
  4  5  1  0      
  4  6  1  0      
  6  7  2  0      
  7  8  1  0      
  8  9  2  0      
  9 10  1  0      
  9 11  1  0      
 11 12  2  0      
  6 12  1  0      
M  END
>  <Bioactivity>
Octopamine (OA), a biogenic monoamine structurally related to noradrenaline, acts as a neurohormone, a neuromodulator and a neurotransmitter in invertebrates.

>  <CAS>
770-05-8

>  <Col>
6

>  <Formula>
C8H12CINO2

>  <ID>
T0469

>  <Index>
75

>  <MOLENAME>
Octopamine hydrochloride

>  <MolWt>
189.64

>  <Pathways>
GPCR/G Protein

>  <Plate>
PLATE 001

>  <QR code>
1152410863

>  <Receptor>
Adrenergic Receptor

>  <Reference>
1. Roeder T, et al. Prog Neurobiol, 1999, 59(5), 533-561.

>  <Row>
H

>  <SMILES>
Cl.NCC(O)C1=CC=C(O)C=C1

>  <Target>
Adrenergic Receptor antagonist

>  <Weight>
10.3mg

$$$$
Lab-1.sdf
  ChemDraw05232018482D

 19 20  0  0  0  0  0  0  0  0999 V2000
   -1.0717    3.0937    0.0000 O   0  0  0  0  0  0  0  0  0  0  0  0
   -0.3573    2.6813    0.0000 C   0  0  0  0  0  0  0  0  0  0  0  0
   -0.3573    1.8563    0.0000 C   0  0  0  0  0  0  0  0  0  0  0  0
    0.3572    1.4438    0.0000 O   0  0  0  0  0  0  0  0  0  0  0  0
    0.3572    0.6188    0.0000 C   0  0  0  0  0  0  0  0  0  0  0  0
    1.0717    0.2063    0.0000 O   0  0  0  0  0  0  0  0  0  0  0  0
    1.0717   -0.6187    0.0000 C   0  0  0  0  0  0  0  0  0  0  0  0
    1.7861   -1.0312    0.0000 C   0  0  0  0  0  0  0  0  0  0  0  0
    1.7861   -1.8562    0.0000 C   0  0  0  0  0  0  0  0  0  0  0  0
    1.0717   -2.2687    0.0000 C   0  0  0  0  0  0  0  0  0  0  0  0
    1.0717   -3.0937    0.0000 O   0  0  0  0  0  0  0  0  0  0  0  0
    0.3572   -1.8562    0.0000 C   0  0  0  0  0  0  0  0  0  0  0  0
    0.3572   -1.0312    0.0000 C   0  0  0  0  0  0  0  0  0  0  0  0
   -0.3573    0.2063    0.0000 C   0  0  0  0  0  0  0  0  0  0  0  0
   -0.3573   -0.6187    0.0000 O   0  0  0  0  0  0  0  0  0  0  0  0
   -1.0717    0.6188    0.0000 C   0  0  0  0  0  0  0  0  0  0  0  0
   -1.7861    0.2063    0.0000 O   0  0  0  0  0  0  0  0  0  0  0  0
   -1.0717    1.4438    0.0000 C   0  0  0  0  0  0  0  0  0  0  0  0
   -1.7861    1.8563    0.0000 O   0  0  0  0  0  0  0  0  0  0  0  0
  1  2  1  0      
  2  3  1  0      
  3  4  1  0      
  4  5  1  0      
  5  6  1  0      
  6  7  1  0      
  7  8  2  0      
  8  9  1  0      
  9 10  2  0      
 10 11  1  0      
 10 12  1  0      
 12 13  2  0      
  7 13  1  0      
  5 14  1  0      
 14 15  1  0      
 14 16  1  0      
 16 17  1  0      
 16 18  1  0      
  3 18  1  0      
 18 19  1  0      
M  END
>  <Bioactivity>
Arbutin(¦Â-Arbutin) is a glycoside; a glycosylated hydroquinone extracted from the bearberry plant in the genus Arctostaphylos; inhibits tyrosinase and thus prevents the formation of melanin.

>  <CAS>
497-76-7

>  <Col>
7

>  <Formula>
C12H16O7

>  <ID>
T0473

>  <Index>
76

>  <MOLENAME>
Arbutin

>  <MolWt>
272.25

>  <Pathways>
Enzyme

>  <Plate>
PLATE 001

>  <QR code>
1152410864

>  <Receptor>
tyrosinase

>  <Reference>
1. O'Donoghue, J L. Journal of Cosmetic Dermatology, 2006, 5(3): 196?203. 

>  <Row>
H

>  <SMILES>
OCC1OC(OC2=CC=C(O)C=C2)C(O)C(O)C1O

>  <Target>
Tyrosinase inhibitor

>  <Weight>
10.3mg

$$$$
Lab-1.sdf
  ChemDraw05232018482D

 43 49  0  0  0  0  0  0  0  0999 V2000
   -1.7745   -2.1105    0.0000 C   0  0  0  0  0  0  0  0  0  0  0  0
   -1.2225   -1.4974    0.0000 C   0  0  0  0  0  0  0  0  0  0  0  0
   -1.4774   -0.7128    0.0000 C   0  0  0  0  0  0  0  0  0  0  0  0
   -0.9254   -0.0997    0.0000 C   0  0  0  0  0  0  0  0  0  0  0  0
   -0.1184   -0.2712    0.0000 C   0  0  0  0  0  0  0  0  0  0  0  0
    0.4336    0.3419    0.0000 C   0  0  0  0  0  0  0  0  0  0  0  0
    1.2406    0.1703    0.0000 O   0  0  0  0  0  0  0  0  0  0  0  0
    1.7926    0.7834    0.0000 C   0  0  0  0  0  0  0  0  0  0  0  0
    1.5377    1.5681    0.0000 O   0  0  0  0  0  0  0  0  0  0  0  0
    2.5997    0.6119    0.0000 N   0  0  0  0  0  0  0  0  0  0  0  0
    3.1517    1.2250    0.0000 C   0  0  0  0  0  0  0  0  0  0  0  0
    3.9587    1.0535    0.0000 C   0  0  0  0  0  0  0  0  0  0  0  0
    4.2136    0.2689    0.0000 C   0  0  0  0  0  0  0  0  0  0  0  0
    3.6616   -0.3442    0.0000 C   0  0  0  0  0  0  0  0  0  0  0  0
    2.8546   -0.1727    0.0000 C   0  0  0  0  0  0  0  0  0  0  0  0
    5.0206    0.0973    0.0000 N   0  0  0  0  0  0  0  0  0  0  0  0
    5.5726    0.7104    0.0000 C   0  0  0  0  0  0  0  0  0  0  0  0
    6.3796    0.5389    0.0000 C   0  0  0  0  0  0  0  0  0  0  0  0
    6.6345   -0.2457    0.0000 C   0  0  0  0  0  0  0  0  0  0  0  0
    6.0825   -0.8588    0.0000 C   0  0  0  0  0  0  0  0  0  0  0  0
    5.2755   -0.6873    0.0000 C   0  0  0  0  0  0  0  0  0  0  0  0
    0.1787    1.1265    0.0000 C   0  0  0  0  0  0  0  0  0  0  0  0
   -0.6283    1.2980    0.0000 C   0  0  0  0  0  0  0  0  0  0  0  0
   -1.1803    0.6849    0.0000 C   0  0  0  0  0  0  0  0  0  0  0  0
   -1.9873    0.8565    0.0000 N   0  0  0  0  0  0  0  0  0  0  0  0
   -2.5395    0.2434    0.0000 C   0  0  0  0  0  0  0  0  0  0  0  0
   -2.2844   -0.5413    0.0000 C   0  0  0  0  0  0  0  0  0  0  0  0
   -2.9520   -1.0262    0.0000 C   0  0  0  0  0  0  0  0  0  0  0  0
   -3.6194   -0.5413    0.0000 N   0  0  0  0  0  0  0  0  0  0  0  0
   -3.3645    0.2434    0.0000 C   0  0  0  0  0  0  0  0  0  0  0  0
   -3.9165    0.8565    0.0000 C   0  0  0  0  0  0  0  0  0  0  0  0
   -4.7235    0.6849    0.0000 C   0  0  0  0  0  0  0  0  0  0  0  0
   -4.9784   -0.0997    0.0000 C   0  0  0  0  0  0  0  0  0  0  0  0
   -5.7854   -0.2712    0.0000 C   0  0  0  0  0  0  0  0  0  0  0  0
   -6.3374    0.3419    0.0000 O   0  0  0  0  0  0  0  0  0  0  0  0
   -6.0825    1.1265    0.0000 C   0  0  0  0  0  0  0  0  0  0  0  0
   -6.6345    1.7396    0.0000 O   0  0  0  0  0  0  0  0  0  0  0  0
   -5.2755    1.2980    0.0000 C   0  0  0  0  0  0  0  0  0  0  0  0
   -5.4187    2.1105    0.0000 O   0  0  0  0  0  0  0  0  0  0  0  0
   -4.6820    1.8711    0.0000 C   0  0  0  0  0  0  0  0  0  0  0  0
   -3.8890    1.6437    0.0000 C   0  0  0  0  0  0  0  0  0  0  0  0
   -4.4264   -0.7128    0.0000 C   0  0  0  0  0  0  0  0  0  0  0  0
   -4.6813   -1.4974    0.0000 O   0  0  0  0  0  0  0  0  0  0  0  0
  1  2  1  0      
  2  3  1  0      
  3  4  2  0      
  4  5  1  0      
  5  6  2  0      
  6  7  1  0      
  7  8  1  0      
  8  9  2  0      
  8 10  1  0      
 10 11  1  0      
 11 12  1  0      
 12 13  1  0      
 13 14  1  0      
 14 15  1  0      
 10 15  1  0      
 13 16  1  0      
 16 17  1  0      
 17 18  1  0      
 18 19  1  0      
 19 20  1  0      
 20 21  1  0      
 16 21  1  0      
  6 22  1  0      
 22 23  2  0      
 23 24  1  0      
  4 24  1  0      
 24 25  2  0      
 25 26  1  0      
 26 27  2  0      
  3 27  1  0      
 27 28  1  0      
 28 29  1  0      
 29 30  1  0      
 26 30  1  0      
 30 31  2  0      
 31 32  1  0      
 32 33  2  0      
 33 34  1  0      
 34 35  1  0      
 35 36  1  0      
 36 37  2  0      
 36 38  1  0      
 32 38  1  0      
 38 39  1  0      
 38 40  1  0      
 40 41  1  0      
 33 42  1  0      
 29 42  1  0      
 42 43  2  0      
M  END
>  <Bioactivity>
Irinotecan Hcl-trihydrate prevents DNA from unwinding by inhibition of topoisomerase 1. 

>  <CAS>
136572-09-3

>  <Col>
8

>  <Formula>
C33H45ClN4O9

>  <ID>
T0486

>  <Index>
77

>  <MOLENAME>
Irinotecan hydrochloride trihydrate

>  <MolWt>
677.18

>  <Pathways>
DNA Damage/DNA Repair

>  <Plate>
PLATE 001

>  <QR code>
1152410865

>  <Receptor>
Topoisomerase I 

>  <Reference>
1. Tsuruo T, et al. Y ChemOthers Pharmacol. 1988;21(1):71-4.

>  <Row>
H

>  <SMILES>
CCC1=C2C=C(OC(=O)N3CCC(CC3)N3CCCCC3)C=CC2=NC2=C1CN1C2=CC2=C(COC(=O)C2(O)CC)C1=O

>  <Target>
Topoisomerase inhibitor

>  <Weight>
10.2mg

$$$$
Lab-1.sdf
  ChemDraw05232018482D

 23 26  0  0  0  0  0  0  0  0999 V2000
   -3.5105   -0.7385    0.0000 C   0  0  0  0  0  0  0  0  0  0  0  0
   -2.6933   -0.8513    0.0000 C   0  0  0  0  0  0  0  0  0  0  0  0
   -2.3824   -1.6155    0.0000 O   0  0  0  0  0  0  0  0  0  0  0  0
   -2.1869   -0.2000    0.0000 C   0  0  0  0  0  0  0  0  0  0  0  0
   -2.4162    0.5925    0.0000 C   0  0  0  0  0  0  0  0  0  0  0  0
   -1.7333    1.0555    0.0000 C   0  0  0  0  0  0  0  0  0  0  0  0
   -1.0820    0.5491    0.0000 C   0  0  0  0  0  0  0  0  0  0  0  0
   -0.2698    0.6943    0.0000 C   0  0  0  0  0  0  0  0  0  0  0  0
    0.0104    1.4703    0.0000 C   0  0  0  0  0  0  0  0  0  0  0  0
    0.8226    1.6155    0.0000 C   0  0  0  0  0  0  0  0  0  0  0  0
    1.3544    0.9848    0.0000 C   0  0  0  0  0  0  0  0  0  0  0  0
    2.1666    1.1300    0.0000 C   0  0  0  0  0  0  0  0  0  0  0  0
    2.6984    0.4993    0.0000 C   0  0  0  0  0  0  0  0  0  0  0  0
    3.5105    0.6445    0.0000 O   0  0  0  0  0  0  0  0  0  0  0  0
    2.4181   -0.2767    0.0000 C   0  0  0  0  0  0  0  0  0  0  0  0
    1.6059   -0.4219    0.0000 C   0  0  0  0  0  0  0  0  0  0  0  0
    1.0741    0.2088    0.0000 C   0  0  0  0  0  0  0  0  0  0  0  0
    0.7938   -0.5671    0.0000 C   0  0  0  0  0  0  0  0  0  0  0  0
    0.2620    0.0636    0.0000 C   0  0  0  0  0  0  0  0  0  0  0  0
   -0.0183   -0.7123    0.0000 C   0  0  0  0  0  0  0  0  0  0  0  0
   -0.8304   -0.8575    0.0000 C   0  0  0  0  0  0  0  0  0  0  0  0
   -1.3623   -0.2268    0.0000 C   0  0  0  0  0  0  0  0  0  0  0  0
   -1.7221   -0.9692    0.0000 C   0  0  0  0  0  0  0  0  0  0  0  0
  1  2  1  0      
  2  3  2  0      
  2  4  1  0      
  4  5  1  0      
  5  6  1  0      
  6  7  1  0      
  7  8  1  0      
  8  9  1  0      
  9 10  1  0      
 10 11  1  0      
 11 12  2  0      
 12 13  1  0      
 13 14  2  0      
 13 15  1  0      
 15 16  1  0      
 16 17  1  0      
 11 17  1  0      
 17 18  1  0      
 17 19  1  0      
  8 19  1  0      
 19 20  1  0      
 20 21  1  0      
 21 22  1  0      
  4 22  1  0      
  7 22  1  0      
 22 23  1  0      
M  END
>  <Bioactivity>
Progesterone is a critical hormone for the maintenance of pregnancy, menstrual cycle,  endometrium and functions with its receptor

>  <CAS>
57-83-0

>  <Col>
9

>  <Formula>
C21H30O2

>  <ID>
T0478

>  <Index>
78

>  <MOLENAME>
Progesterone

>  <MolWt>
314.47

>  <Pathways>
Endocrinology/ Hormones

>  <Plate>
PLATE 001

>  <QR code>
1152410866

>  <Receptor>
ER; Kappa-type opioid receptor

>  <Reference>
1.Boonyaratanakornkit V, et al. Mol Endocrinol. 2007 Feb;21(2):359-75. 

>  <Row>
H

>  <SMILES>
CC(=O)C1CCC2C3CCC4=CC(=O)CCC4(C)C3CCC12C

>  <Target>
Estrogen/Progestogen Receptor agonist

>  <Weight>
10.1mg

$$$$
Lab-1.sdf
  ChemDraw05232018482D

 14 16  0  0  0  0  0  0  0  0999 V2000
   -1.1116    1.2730    0.0000 O   0  0  0  0  0  0  0  0  0  0  0  0
   -1.0524    0.4501    0.0000 C   0  0  0  0  0  0  0  0  0  0  0  0
   -1.7355   -0.0126    0.0000 C   0  0  0  0  0  0  0  0  0  0  0  0
   -1.6763   -0.8355    0.0000 C   0  0  0  0  0  0  0  0  0  0  0  0
   -0.9341   -1.1957    0.0000 C   0  0  0  0  0  0  0  0  0  0  0  0
   -0.2511   -0.7330    0.0000 C   0  0  0  0  0  0  0  0  0  0  0  0
    0.3726   -1.2730    0.0000 C   0  0  0  0  0  0  0  0  0  0  0  0
    1.1955   -1.2139    0.0000 C   0  0  0  0  0  0  0  0  0  0  0  0
    1.7355   -0.5902    0.0000 N   0  0  0  0  0  0  0  0  0  0  0  0
    1.6764    0.2327    0.0000 C   0  0  0  0  0  0  0  0  0  0  0  0
    1.0527    0.7727    0.0000 C   0  0  0  0  0  0  0  0  0  0  0  0
    0.4569   -0.1651    0.0000 C   0  0  0  0  0  0  0  0  0  0  0  0
    0.2298    0.7136    0.0000 C   0  0  0  0  0  0  0  0  0  0  0  0
   -0.3102    0.0899    0.0000 N   0  0  0  0  0  0  0  0  0  0  0  0
  1  2  2  0      
  2  3  1  0      
  3  4  2  0      
  4  5  1  0      
  5  6  2  0      
  6  7  1  0      
  7  8  1  0      
  8  9  1  0      
  9 10  1  0      
 10 11  1  0      
 11 12  1  0      
  7 12  1  0      
 11 13  1  0      
 13 14  1  0      
  2 14  1  0      
  6 14  1  0      
M  END
>  <Bioactivity>
Cytisine is an alkaloid that is found naturally in several plant genera such as Laburnum and Cytisus of the family Fabaceae. Recent studies have shown it to be a more effective and significantly more 
affordable smoking cessation treatment than nicotine replacement therapy. Also known as baptitoxine or sophorine, cytisine has been used as a smoking cessation treatment since 1964, and is relatively 
unknown in regions outside of central and Eastern Europe. Cytisine is a partial nicotinic acetylcholine agonist with a half-life of 4.8 hours. Recent Phase III clinical trials using Tabex (a brand of 
Cytisine marketed by Sopharma AD) have shown similar efficacy to varenicline, but at a fraction of the cost. 

>  <CAS>
485-35-8

>  <Col>
10

>  <Formula>
C11H14N2O

>  <ID>
T0479

>  <Index>
79

>  <MOLENAME>
Cytisine

>  <MolWt>
190.25

>  <Pathways>
Neuroscience

>  <Plate>
PLATE 001

>  <QR code>
1152410867

>  <Receptor>
Nicotinic AChR

>  <Reference>
1. Walker N, et al. N Engl J Med. 2014 Dec 18;371(25):2353-62.

>  <Row>
H

>  <SMILES>
O=C1C=CC=C2C3CNCC(C3)CN12

>  <Target>
AChR agonist

>  <Weight>
10.3mg

$$$$
Lab-1.sdf
  ChemDraw05232018482D

  8  8  0  0  0  0  0  0  0  0999 V2000
    0.2773    1.3810    0.0000 C   0  0  0  0  0  0  0  0  0  0  0  0
    0.2773    0.5560    0.0000 N   0  0  0  0  0  0  0  0  0  0  0  0
    0.9447    0.0711    0.0000 C   0  0  0  0  0  0  0  0  0  0  0  0
    0.6898   -0.7136    0.0000 C   0  0  0  0  0  0  0  0  0  0  0  0
    1.1747   -1.3810    0.0000 O   0  0  0  0  0  0  0  0  0  0  0  0
   -0.1352   -0.7136    0.0000 N   0  0  0  0  0  0  0  0  0  0  0  0
   -0.3902    0.0711    0.0000 C   0  0  0  0  0  0  0  0  0  0  0  0
   -1.1747    0.3260    0.0000 N   0  0  0  0  0  0  0  0  0  0  0  0
  1  2  1  0      
  2  3  1  0      
  3  4  1  0      
  4  5  2  0      
  4  6  1  0      
  6  7  2  0      
  2  7  1  0      
  7  8  1  0      
M  END
>  <Bioactivity>
Creatinine is a break-down product of creatine phosphate in muscle, and is usually produced at a fairly constant rate by the body.

>  <CAS>
60-27-5

>  <Col>
11

>  <Formula>
C4H7N3O

>  <ID>
T0496

>  <Index>
80

>  <MOLENAME>
Creatinine

>  <MolWt>
113.12

>  <Pathways>
Others

>  <Plate>
PLATE 001

>  <QR code>
1152410868

>  <Receptor>
Others

>  <Reference>
1. Allen PJ, et al. Neurosci Biobehav Rev, 2012, 36(5), 1442-1462.

>  <Row>
H

>  <SMILES>
CN1CC(=O)N=C1N

>  <Target>
Others

>  <Weight>
10.4mg

$$$$
Lab-1.sdf
  ChemDraw05232018482D

  7  6  0  0  0  0  0  0  0  0999 V2000
   -1.7861    0.2062    0.0000 N   0  0  0  0  0  0  0  0  0  0  0  0
   -1.0717    0.6187    0.0000 C   0  0  0  0  0  0  0  0  0  0  0  0
   -0.3572    0.2062    0.0000 C   0  0  0  0  0  0  0  0  0  0  0  0
    0.3572    0.6187    0.0000 C   0  0  0  0  0  0  0  0  0  0  0  0
    1.0716    0.2062    0.0000 C   0  0  0  0  0  0  0  0  0  0  0  0
    1.7861    0.6187    0.0000 O   0  0  0  0  0  0  0  0  0  0  0  0
    1.0716   -0.6187    0.0000 O   0  0  0  0  0  0  0  0  0  0  0  0
  1  2  1  0      
  2  3  1  0      
  3  4  1  0      
  4  5  1  0      
  5  6  1  0      
  5  7  2  0      
M  END
>  <Bioactivity>
The most common inhibitory neurotransmitter in the central nervous system. 

>  <CAS>
56-12-2

>  <Col>
2

>  <Formula>
C4H9NO2

>  <ID>
T0508

>  <Index>
81

>  <MOLENAME>
4-Aminobutyric acid

>  <MolWt>
103.12

>  <Pathways>
Neuroscience

>  <Plate>
PLATE 002

>  <QR code>
1152411624

>  <Receptor>
GABA

>  <Reference>
1. Erasso D, et al. Exp Neurol. 2014 Nov;261:646-53. 

>  <Row>
A

>  <SMILES>
NCCCC(O)=O

>  <Target>
GABAR agonist

>  <Weight>
10.2mg

$$$$
Lab-1.sdf
  ChemDraw05232018482D

 24 26  0  0  0  0  0  0  0  0999 V2000
   -2.8578   -2.4750    0.0000 O   0  0  0  0  0  0  0  0  0  0  0  0
   -2.8578   -1.6500    0.0000 C   0  0  0  0  0  0  0  0  0  0  0  0
   -2.1434   -1.2375    0.0000 C   0  0  0  0  0  0  0  0  0  0  0  0
   -2.1434   -0.4125    0.0000 O   0  0  0  0  0  0  0  0  0  0  0  0
   -1.4290    0.0000    0.0000 C   0  0  0  0  0  0  0  0  0  0  0  0
   -1.4290    0.8250    0.0000 O   0  0  0  0  0  0  0  0  0  0  0  0
   -0.7145    1.2375    0.0000 C   0  0  0  0  0  0  0  0  0  0  0  0
   -0.7145    2.0625    0.0000 C   0  0  0  0  0  0  0  0  0  0  0  0
   -1.4290    2.4750    0.0000 O   0  0  0  0  0  0  0  0  0  0  0  0
   -0.0001    2.4750    0.0000 C   0  0  0  0  0  0  0  0  0  0  0  0
    0.7145    2.0625    0.0000 C   0  0  0  0  0  0  0  0  0  0  0  0
    1.4289    2.4750    0.0000 O   0  0  0  0  0  0  0  0  0  0  0  0
    2.1434    2.0625    0.0000 C   0  0  0  0  0  0  0  0  0  0  0  0
    2.8578    2.4750    0.0000 O   0  0  0  0  0  0  0  0  0  0  0  0
    2.1434    1.2375    0.0000 C   0  0  0  0  0  0  0  0  0  0  0  0
    1.4289    0.8250    0.0000 C   0  0  0  0  0  0  0  0  0  0  0  0
    0.7145    1.2375    0.0000 C   0  0  0  0  0  0  0  0  0  0  0  0
   -0.0001    0.8250    0.0000 C   0  0  0  0  0  0  0  0  0  0  0  0
   -0.7145   -0.4125    0.0000 C   0  0  0  0  0  0  0  0  0  0  0  0
   -0.0001    0.0000    0.0000 O   0  0  0  0  0  0  0  0  0  0  0  0
   -0.7145   -1.2375    0.0000 C   0  0  0  0  0  0  0  0  0  0  0  0
   -0.0001   -1.6500    0.0000 O   0  0  0  0  0  0  0  0  0  0  0  0
   -1.4290   -1.6500    0.0000 C   0  0  0  0  0  0  0  0  0  0  0  0
   -1.4290   -2.4750    0.0000 O   0  0  0  0  0  0  0  0  0  0  0  0
  1  2  1  0      
  2  3  1  0      
  3  4  1  0      
  4  5  1  0      
  5  6  1  0      
  6  7  1  0      
  7  8  2  0      
  8  9  1  0      
  8 10  1  0      
 10 11  2  0      
 11 12  1  0      
 12 13  1  0      
 13 14  2  0      
 13 15  1  0      
 15 16  2  0      
 16 17  1  0      
 11 17  1  0      
 17 18  2  0      
  7 18  1  0      
  5 19  1  0      
 19 20  1  0      
 19 21  1  0      
 21 22  1  0      
 21 23  1  0      
  3 23  1  0      
 23 24  1  0      
M  END
>  <Bioactivity>
Extracted from Aesculushippocastanumlinn;Suitability:Hot ethanol,methanol,pyridine,ethyl acetate and acetic acid;Store the product in sealed,cool and dry condition

>  <CAS>
531-75-9

>  <Col>
3

>  <Formula>
C15H16O9

>  <ID>
T2885

>  <Index>
82

>  <MOLENAME>
Esculin

>  <MolWt>
340.28

>  <Pathways>
Others

>  <Plate>
PLATE 002

>  <QR code>
1152411623

>  <Receptor>
Others

>  <Reference>
1. Mokdad-Bzeouich I, et al. J Antibiot (Tokyo). 2015 Mar;68(3):148-52. 

>  <Row>
A

>  <SMILES>
OCC1OC(OC2=C(O)C=C3OC(=O)C=CC3=C2)C(O)C(O)C1O

>  <Target>
Others

>  <Weight>
10.3mg

$$$$
Lab-1.sdf
  ChemDraw05232018482D

 20 23  0  0  0  0  0  0  0  0999 V2000
   -0.6425    1.4520    0.0000 O   0  0  0  0  0  0  0  0  0  0  0  0
   -0.8974    0.6674    0.0000 C   0  0  0  0  0  0  0  0  0  0  0  0
   -0.4125    0.0000    0.0000 C   0  0  0  0  0  0  0  0  0  0  0  0
   -0.8974   -0.6675    0.0000 N   0  0  0  0  0  0  0  0  0  0  0  0
   -1.6820   -0.4125    0.0000 C   0  0  0  0  0  0  0  0  0  0  0  0
   -2.3965   -0.8250    0.0000 C   0  0  0  0  0  0  0  0  0  0  0  0
   -3.1110   -0.4125    0.0000 C   0  0  0  0  0  0  0  0  0  0  0  0
   -3.1110    0.4125    0.0000 C   0  0  0  0  0  0  0  0  0  0  0  0
   -2.3965    0.8250    0.0000 C   0  0  0  0  0  0  0  0  0  0  0  0
   -1.6820    0.4125    0.0000 C   0  0  0  0  0  0  0  0  0  0  0  0
    0.4125    0.0000    0.0000 C   0  0  0  0  0  0  0  0  0  0  0  0
    0.8974    0.6674    0.0000 N   0  0  0  0  0  0  0  0  0  0  0  0
    1.6820    0.4125    0.0000 C   0  0  0  0  0  0  0  0  0  0  0  0
    2.3965    0.8250    0.0000 C   0  0  0  0  0  0  0  0  0  0  0  0
    3.1110    0.4125    0.0000 C   0  0  0  0  0  0  0  0  0  0  0  0
    3.1110   -0.4125    0.0000 C   0  0  0  0  0  0  0  0  0  0  0  0
    2.3965   -0.8250    0.0000 C   0  0  0  0  0  0  0  0  0  0  0  0
    1.6820   -0.4125    0.0000 C   0  0  0  0  0  0  0  0  0  0  0  0
    0.8974   -0.6675    0.0000 C   0  0  0  0  0  0  0  0  0  0  0  0
    0.6425   -1.4520    0.0000 O   0  0  0  0  0  0  0  0  0  0  0  0
  1  2  2  0      
  3  2  1  4      
  3  4  1  0      
  4  5  1  0      
  5  6  2  0      
  6  7  1  0      
  7  8  2  0      
  8  9  1  0      
  9 10  2  0      
  2 10  1  0      
  5 10  1  0      
  3 11  2  0      
 11 12  1  0      
 12 13  1  0      
 13 14  2  0      
 14 15  1  0      
 15 16  2  0      
 16 17  1  0      
 17 18  2  0      
 13 18  1  0      
 18 19  1  0      
 11 19  1  0      
 19 20  2  0      
M  END
>  <Bioactivity>
Extracted from Indigo blue;Suitability:Water,ethanol,glycerol and propylene glycol;Store the product in sealed,cool and dry condition

>  <CAS>
482-89-3

>  <Col>
4

>  <Formula>
C16H10O2N2

>  <ID>
T2847

>  <Index>
83

>  <MOLENAME>
Indigo

>  <MolWt>
262.26

>  <Pathways>
Others

>  <Plate>
PLATE 002

>  <QR code>
1152411622

>  <Receptor>
Others

>  <Reference>
1. Margetis K, et al. J Neurosurg. 2015 Jan;122(1):40-8.

>  <Row>
A

>  <SMILES>
O=C1C(NC2=CC=CC=C12)=C1NC2=CC=CC=C2C1=O

>  <Target>
Others

>  <Weight>
10.4mg

$$$$
Lab-1.sdf
  ChemDraw05232018482D

 11 12  0  0  0  0  0  0  0  0999 V2000
   -1.2127    0.6493    0.0000 C   0  0  0  0  0  0  0  0  0  0  0  0
   -0.4224    0.4125    0.0000 C   0  0  0  0  0  0  0  0  0  0  0  0
   -1.2127    0.1757    0.0000 C   0  0  0  0  0  0  0  0  0  0  0  0
   -0.2162    1.2375    0.0000 C   0  0  0  0  0  0  0  0  0  0  0  0
   -0.9306    0.8250    0.0000 C   0  0  0  0  0  0  0  0  0  0  0  0
   -0.9306    0.0000    0.0000 C   0  0  0  0  0  0  0  0  0  0  0  0
   -0.2162   -0.4125    0.0000 C   0  0  0  0  0  0  0  0  0  0  0  0
   -0.2162   -1.2375    0.0000 C   0  0  0  0  0  0  0  0  0  0  0  0
    0.4982    0.0000    0.0000 C   0  0  0  0  0  0  0  0  0  0  0  0
    1.2127   -0.4125    0.0000 O   0  0  0  0  0  0  0  0  0  0  0  0
    0.4982    0.8250    0.0000 C   0  0  0  0  0  0  0  0  0  0  0  0
  1  2  1  0      
  2  3  1  0      
  2  4  1  0      
  4  5  1  0      
  5  6  1  0      
  6  7  1  0      
  2  7  1  0      
  7  8  1  0      
  7  9  1  0      
  9 10  2  0      
  9 11  1  0      
  4 11  1  0      
M  END
>  <Bioactivity>
Camphor is a bicyclic monoterpene ketone found widely in plants, especially CINNAMOMUM CAMPHORA. It is used topically as a skin antipruritic and as an anti-infective agent.

>  <CAS>
76-22-2

>  <Col>
5

>  <Formula>
C10H16O

>  <ID>
T2952

>  <Index>
84

>  <MOLENAME>
Camphor

>  <MolWt>
152.24

>  <Pathways>
Others

>  <Plate>
PLATE 002

>  <QR code>
1152411621

>  <Receptor>
Others

>  <Reference>
1. Willetts A, Kelly DR. Microbiology. 2014 Aug;160(Pt 8):1783-94. 

>  <Row>
A

>  <SMILES>
CC1(C)C2CCC1(C)C(=O)C2

>  <Target>
Others

>  <Weight>
10.1mg

$$$$
Lab-1.sdf
  ChemDraw05232018482D

 10 10  0  0  0  0  0  0  0  0999 V2000
   -0.7144    1.8562    0.0000 O   0  0  0  0  0  0  0  0  0  0  0  0
    0.0001    1.4438    0.0000 C   0  0  0  0  0  0  0  0  0  0  0  0
    0.7144    1.8562    0.0000 O   0  0  0  0  0  0  0  0  0  0  0  0
    0.0001    0.6188    0.0000 C   0  0  0  0  0  0  0  0  0  0  0  0
    0.7144    0.2063    0.0000 C   0  0  0  0  0  0  0  0  0  0  0  0
    0.7144   -0.6187    0.0000 C   0  0  0  0  0  0  0  0  0  0  0  0
    0.0001   -1.0312    0.0000 C   0  0  0  0  0  0  0  0  0  0  0  0
    0.0001   -1.8562    0.0000 O   0  0  0  0  0  0  0  0  0  0  0  0
   -0.7144   -0.6187    0.0000 C   0  0  0  0  0  0  0  0  0  0  0  0
   -0.7144    0.2063    0.0000 C   0  0  0  0  0  0  0  0  0  0  0  0
  1  2  1  0      
  2  3  2  0      
  2  4  1  0      
  4  5  2  0      
  5  6  1  0      
  6  7  2  0      
  7  8  1  0      
  7  9  1  0      
  9 10  2  0      
  4 10  1  0      
M  END
>  <Bioactivity>
4-Hydroxybenzoic acid is a monohydroxybenzoic acid, a phenolic derivative of benzoic acid. It is a white crystalline solid that is slightly soluble in water and chloroform but more soluble in polar or
ganic solvents such as alcohols and acetone. 

>  <CAS>
99-96-7

>  <Col>
6

>  <Formula>
C7H6O3

>  <ID>
T2989

>  <Index>
85

>  <MOLENAME>
4-Hydroxybenzoic acid

>  <MolWt>
138.12

>  <Pathways>
Others

>  <Plate>
PLATE 002

>  <QR code>
1152411620

>  <Receptor>
Others

>  <Reference>
1. Farhoosh R, et al. Food Chem. 2016 Mar 1;194:128-34.

>  <Row>
A

>  <SMILES>
OC(=O)C1=CC=C(O)C=C1

>  <Target>
Others

>  <Weight>
10.1mg

$$$$
Lab-1.sdf
  ChemDraw05232018482D

 13 13  0  0  0  0  0  0  0  0999 V2000
   -1.4289    2.2687    0.0000 C   0  0  0  0  0  0  0  0  0  0  0  0
   -1.4289    1.4438    0.0000 O   0  0  0  0  0  0  0  0  0  0  0  0
   -0.7144    1.0312    0.0000 C   0  0  0  0  0  0  0  0  0  0  0  0
   -0.0001    1.4438    0.0000 O   0  0  0  0  0  0  0  0  0  0  0  0
   -0.7144    0.2062    0.0000 C   0  0  0  0  0  0  0  0  0  0  0  0
   -0.0001   -0.2062    0.0000 C   0  0  0  0  0  0  0  0  0  0  0  0
   -0.0001   -1.0312    0.0000 C   0  0  0  0  0  0  0  0  0  0  0  0
    0.7145   -1.4438    0.0000 O   0  0  0  0  0  0  0  0  0  0  0  0
    1.4289   -1.0312    0.0000 C   0  0  0  0  0  0  0  0  0  0  0  0
   -0.7144   -1.4438    0.0000 C   0  0  0  0  0  0  0  0  0  0  0  0
   -0.7144   -2.2687    0.0000 O   0  0  0  0  0  0  0  0  0  0  0  0
   -1.4289   -1.0312    0.0000 C   0  0  0  0  0  0  0  0  0  0  0  0
   -1.4289   -0.2062    0.0000 C   0  0  0  0  0  0  0  0  0  0  0  0
  1  2  1  0      
  2  3  1  0      
  3  4  2  0      
  3  5  1  0      
  5  6  2  0      
  6  7  1  0      
  7  8  1  0      
  8  9  1  0      
  7 10  2  0      
 10 11  1  0      
 10 12  1  0      
 12 13  2  0      
  5 13  1  0      
M  END
>  <Bioactivity>
Hovenia dulcis Thunb extract and its ingredient methyl vanillate activate Wnt/¦Â-catenin pathway and increase bone mass in growing or ovariectomized mice.

>  <CAS>
3943-74-6

>  <Col>
7

>  <Formula>
C9H10O4

>  <ID>
T2818

>  <Index>
86

>  <MOLENAME>
Methyl Vanillate

>  <MolWt>
182.17

>  <Pathways>
Stem Cell

>  <Plate>
PLATE 002

>  <QR code>
1152411619

>  <Receptor>
wnt

>  <Reference>
1. Cha PH, et al. PLoS One. 2014 Jan 22;9(1):e85546.

>  <Row>
A

>  <SMILES>
COC(=O)C1=CC(OC)=C(O)C=C1

>  <Target>
Wnt/beta-catenin activator

>  <Weight>
10.4mg

$$$$
Lab-1.sdf
  ChemDraw05232018482D

 14 14  0  0  0  0  0  0  0  0999 V2000
   -1.7862    2.4750    0.0000 C   0  0  0  0  0  0  0  0  0  0  0  0
   -1.0717    2.0625    0.0000 C   0  0  0  0  0  0  0  0  0  0  0  0
   -1.0717    1.2375    0.0000 O   0  0  0  0  0  0  0  0  0  0  0  0
   -0.3572    0.8250    0.0000 C   0  0  0  0  0  0  0  0  0  0  0  0
    0.3572    1.2375    0.0000 O   0  0  0  0  0  0  0  0  0  0  0  0
   -0.3572    0.0000    0.0000 C   0  0  0  0  0  0  0  0  0  0  0  0
    0.3572   -0.4125    0.0000 C   0  0  0  0  0  0  0  0  0  0  0  0
    0.3572   -1.2375    0.0000 C   0  0  0  0  0  0  0  0  0  0  0  0
    1.0717   -1.6500    0.0000 O   0  0  0  0  0  0  0  0  0  0  0  0
    1.7862   -1.2375    0.0000 C   0  0  0  0  0  0  0  0  0  0  0  0
   -0.3572   -1.6500    0.0000 C   0  0  0  0  0  0  0  0  0  0  0  0
   -0.3572   -2.4750    0.0000 O   0  0  0  0  0  0  0  0  0  0  0  0
   -1.0717   -1.2375    0.0000 C   0  0  0  0  0  0  0  0  0  0  0  0
   -1.0717   -0.4125    0.0000 C   0  0  0  0  0  0  0  0  0  0  0  0
  1  2  1  0      
  2  3  1  0      
  3  4  1  0      
  4  5  2  0      
  4  6  1  0      
  6  7  2  0      
  7  8  1  0      
  8  9  1  0      
  9 10  1  0      
  8 11  2  0      
 11 12  1  0      
 11 13  1  0      
 13 14  2  0      
  6 14  1  0      
M  END
>  <Bioactivity>
Ethylvanillin are used by the food industry; ethylvanillin is more expensive, but has a stronger note.

>  <CAS>
617-05-0

>  <Col>
8

>  <Formula>
C10H12O4

>  <ID>
T2929

>  <Index>
87

>  <MOLENAME>
Ethyl Vanillate

>  <MolWt>
196.2

>  <Pathways>
Others

>  <Plate>
PLATE 002

>  <QR code>
1152411618

>  <Receptor>
Others

>  <Reference>
1. Namazi MR Md, Shotorbani AK Md. Iran J Med Sci. 2015 Nov;40(6):478-84.

>  <Row>
A

>  <SMILES>
CCOC(=O)C1=CC(OC)=C(O)C=C1

>  <Target>
Others

>  <Weight>
10.3mg

$$$$
Lab-1.sdf
  ChemDraw05232018482D

 11 11  0  0  0  0  0  0  0  0999 V2000
    0.7145    1.8562    0.0000 C   0  0  0  0  0  0  0  0  0  0  0  0
    0.0000    1.4438    0.0000 O   0  0  0  0  0  0  0  0  0  0  0  0
    0.0000    0.6188    0.0000 C   0  0  0  0  0  0  0  0  0  0  0  0
    0.7145    0.2063    0.0000 C   0  0  0  0  0  0  0  0  0  0  0  0
    1.4289    0.6188    0.0000 O   0  0  0  0  0  0  0  0  0  0  0  0
    0.7145   -0.6187    0.0000 C   0  0  0  0  0  0  0  0  0  0  0  0
    0.0000   -1.0312    0.0000 C   0  0  0  0  0  0  0  0  0  0  0  0
   -0.7145   -0.6187    0.0000 C   0  0  0  0  0  0  0  0  0  0  0  0
   -1.4289   -1.0312    0.0000 C   0  0  0  0  0  0  0  0  0  0  0  0
   -1.4289   -1.8562    0.0000 O   0  0  0  0  0  0  0  0  0  0  0  0
   -0.7145    0.2063    0.0000 C   0  0  0  0  0  0  0  0  0  0  0  0
  1  2  1  0      
  2  3  1  0      
  3  4  2  0      
  4  5  1  0      
  4  6  1  0      
  6  7  2  0      
  7  8  1  0      
  8  9  1  0      
  9 10  1  0      
  8 11  2  0      
  3 11  1  0      
M  END
>  <Bioactivity>
Vanillyl alcohol is derived from vanillin. It is used to flavor food.

>  <CAS>
498-00-0

>  <Col>
9

>  <Formula>
C8H10O3

>  <ID>
T2860

>  <Index>
88

>  <MOLENAME>
Vanillyl Alcohol

>  <MolWt>
154.16

>  <Pathways>
Others

>  <Plate>
PLATE 002

>  <QR code>
1152411617

>  <Receptor>
Others

>  <Reference>
1. Lahtinen M, et al. Org Biomol Chem. 2013 Sep 7;11(33):5454-64. 

>  <Row>
A

>  <SMILES>
COC1=C(O)C=CC(CO)=C1

>  <Target>
Others

>  <Weight>
10.3mg

$$$$
Lab-1.sdf
  ChemDraw05232018482D

 14 14  0  0  0  0  0  0  0  0999 V2000
   -1.4289    1.8562    0.0000 C   0  0  0  0  0  0  0  0  0  0  0  0
   -0.7144    1.4437    0.0000 O   0  0  0  0  0  0  0  0  0  0  0  0
   -0.7144    0.6187    0.0000 C   0  0  0  0  0  0  0  0  0  0  0  0
   -0.0000    0.2062    0.0000 C   0  0  0  0  0  0  0  0  0  0  0  0
    0.7144    0.6187    0.0000 O   0  0  0  0  0  0  0  0  0  0  0  0
    1.4289    0.2062    0.0000 C   0  0  0  0  0  0  0  0  0  0  0  0
    2.1434    0.6187    0.0000 C   0  0  0  0  0  0  0  0  0  0  0  0
    1.4289   -0.6187    0.0000 O   0  0  0  0  0  0  0  0  0  0  0  0
   -0.0000   -0.6187    0.0000 C   0  0  0  0  0  0  0  0  0  0  0  0
   -0.7144   -1.0312    0.0000 C   0  0  0  0  0  0  0  0  0  0  0  0
   -1.4289   -0.6187    0.0000 C   0  0  0  0  0  0  0  0  0  0  0  0
   -2.1434   -1.0312    0.0000 C   0  0  0  0  0  0  0  0  0  0  0  0
   -2.1434   -1.8562    0.0000 O   0  0  0  0  0  0  0  0  0  0  0  0
   -1.4289    0.2062    0.0000 C   0  0  0  0  0  0  0  0  0  0  0  0
  1  2  1  0      
  2  3  1  0      
  3  4  2  0      
  4  5  1  0      
  5  6  1  0      
  6  7  1  0      
  6  8  2  0      
  4  9  1  0      
  9 10  2  0      
 10 11  1  0      
 11 12  1  0      
 12 13  2  0      
 11 14  2  0      
  3 14  1  0      
M  END
>  <Bioactivity>
Vanillin is a phenolic aldehyde

>  <CAS>
881-68-5

>  <Col>
10

>  <Formula>
C10H10O4

>  <ID>
T2977

>  <Index>
89

>  <MOLENAME>
Acetylvanillin

>  <MolWt>
194.18

>  <Pathways>
Others

>  <Plate>
PLATE 002

>  <QR code>
1152411616

>  <Receptor>
Others

>  <Reference>
1. Shakeel F, et al. Food Chem. 2015 Aug 1;180:244-8. 

>  <Row>
A

>  <SMILES>
COC1=C(OC(C)=O)C=CC(C=O)=C1

>  <Target>
Others

>  <Weight>
10.4mg

$$$$
Lab-1.sdf
  ChemDraw05232018482D

 15 15  0  0  0  0  0  0  0  0999 V2000
   -1.4289    2.2687    0.0000 C   0  0  0  0  0  0  0  0  0  0  0  0
   -1.4289    1.4437    0.0000 C   0  0  0  0  0  0  0  0  0  0  0  0
   -0.7145    1.0312    0.0000 O   0  0  0  0  0  0  0  0  0  0  0  0
   -0.7145    0.2062    0.0000 C   0  0  0  0  0  0  0  0  0  0  0  0
   -0.0001   -0.2063    0.0000 C   0  0  0  0  0  0  0  0  0  0  0  0
    0.7144    0.2062    0.0000 O   0  0  0  0  0  0  0  0  0  0  0  0
    1.4289   -0.2063    0.0000 C   0  0  0  0  0  0  0  0  0  0  0  0
    2.1434    0.2062    0.0000 C   0  0  0  0  0  0  0  0  0  0  0  0
    1.4289   -1.0313    0.0000 O   0  0  0  0  0  0  0  0  0  0  0  0
   -0.0001   -1.0313    0.0000 C   0  0  0  0  0  0  0  0  0  0  0  0
   -0.7145   -1.4438    0.0000 C   0  0  0  0  0  0  0  0  0  0  0  0
   -1.4289   -1.0313    0.0000 C   0  0  0  0  0  0  0  0  0  0  0  0
   -2.1434   -1.4438    0.0000 C   0  0  0  0  0  0  0  0  0  0  0  0
   -2.1434   -2.2687    0.0000 O   0  0  0  0  0  0  0  0  0  0  0  0
   -1.4289   -0.2063    0.0000 C   0  0  0  0  0  0  0  0  0  0  0  0
  1  2  1  0      
  2  3  1  0      
  3  4  1  0      
  4  5  2  0      
  5  6  1  0      
  6  7  1  0      
  7  8  1  0      
  7  9  2  0      
  5 10  1  0      
 10 11  2  0      
 11 12  1  0      
 12 13  1  0      
 13 14  2  0      
 12 15  2  0      
  4 15  1  0      
M  END
>  <Bioactivity>
Vanillin is a phenolic aldehyde

>  <CAS>
72207-94-4

>  <Col>
11

>  <Formula>
C11H12O4

>  <ID>
T2948

>  <Index>
90

>  <MOLENAME>
Ethyl vanillin acetate

>  <MolWt>
208.21

>  <Pathways>
Others

>  <Plate>
PLATE 002

>  <QR code>
1152411615

>  <Receptor>
Others

>  <Reference>
1. Seebaluck R, et al. J Ethnopharmacol. 2015 Jan 15;159:137-57. 

>  <Row>
A

>  <SMILES>
CCOC1=C(OC(C)=O)C=CC(C=O)=C1

>  <Target>
Others

>  <Weight>
10.3mg

$$$$
Lab-1.sdf
  ChemDraw05232018482D

 12 11  0  0  0  0  0  0  0  0999 V2000
   -2.5006   -0.2062    0.0000 O   0  0  0  0  0  0  0  0  0  0  0  0
   -1.7862    0.2063    0.0000 C   0  0  0  0  0  0  0  0  0  0  0  0
   -1.0718   -0.2062    0.0000 C   0  0  0  0  0  0  0  0  0  0  0  0
   -1.0718   -1.0312    0.0000 O   0  0  0  0  0  0  0  0  0  0  0  0
   -0.3573    0.2063    0.0000 C   0  0  0  0  0  0  0  0  0  0  0  0
   -0.3573    1.0312    0.0000 O   0  0  0  0  0  0  0  0  0  0  0  0
    0.3571   -0.2062    0.0000 C   0  0  0  0  0  0  0  0  0  0  0  0
    0.3571   -1.0312    0.0000 O   0  0  0  0  0  0  0  0  0  0  0  0
    1.0716    0.2063    0.0000 C   0  0  0  0  0  0  0  0  0  0  0  0
    1.0716    1.0312    0.0000 O   0  0  0  0  0  0  0  0  0  0  0  0
    1.7861   -0.2062    0.0000 C   0  0  0  0  0  0  0  0  0  0  0  0
    2.5006    0.2063    0.0000 O   0  0  0  0  0  0  0  0  0  0  0  0
  1  2  1  0      
  2  3  1  0      
  3  4  1  0      
  3  5  1  0      
  5  6  1  0      
  5  7  1  0      
  7  8  1  0      
  7  9  1  0      
  9 10  1  0      
  9 11  1  0      
 11 12  1  0      
M  END
>  <Bioactivity>
Galactitol is a naturally occurring product of plants obtained following reduction of GALACTOSE. It appears as a white crystalline powder with a slight sweet taste. It may form in excess in the lens o
f the eye in GALACTOSEMIAS, a deficiency of GALACTOKINASE.

>  <CAS>
608-66-2

>  <Col>
2

>  <Formula>
C6H14O6

>  <ID>
T0529

>  <Index>
91

>  <MOLENAME>
Dulcitol

>  <MolWt>
182.17

>  <Pathways>
Others

>  <Plate>
PLATE 002

>  <QR code>
1152411603

>  <Receptor>
Others

>  <Reference>
1. Jeon BS, et al. Enzyme Microb Technol. 2013 Aug 15;53(3):143-51. 

>  <Row>
B

>  <SMILES>
OCC(O)C(O)C(O)C(O)CO

>  <Target>
Others

>  <Weight>
10.2mg

$$$$
Lab-1.sdf
  ChemDraw05232018482D

 17 19  0  0  0  0  0  0  0  0999 V2000
    0.3571   -1.8562    0.0000 O   0  0  0  0  0  0  0  0  0  0  0  0
    0.3571   -1.0312    0.0000 C   0  0  0  0  0  0  0  0  0  0  0  0
   -0.3573   -0.6187    0.0000 C   0  0  0  0  0  0  0  0  0  0  0  0
   -0.3573    0.2063    0.0000 C   0  0  0  0  0  0  0  0  0  0  0  0
    0.3571    0.6188    0.0000 O   0  0  0  0  0  0  0  0  0  0  0  0
    1.0716    0.2063    0.0000 C   0  0  0  0  0  0  0  0  0  0  0  0
    1.7861    0.6188    0.0000 C   0  0  0  0  0  0  0  0  0  0  0  0
    2.5006    0.2063    0.0000 C   0  0  0  0  0  0  0  0  0  0  0  0
    2.5006   -0.6187    0.0000 C   0  0  0  0  0  0  0  0  0  0  0  0
    1.7861   -1.0312    0.0000 C   0  0  0  0  0  0  0  0  0  0  0  0
    1.0716   -0.6187    0.0000 C   0  0  0  0  0  0  0  0  0  0  0  0
   -1.0718    0.6188    0.0000 C   0  0  0  0  0  0  0  0  0  0  0  0
   -1.7862    0.2063    0.0000 C   0  0  0  0  0  0  0  0  0  0  0  0
   -2.5006    0.6188    0.0000 C   0  0  0  0  0  0  0  0  0  0  0  0
   -2.5006    1.4438    0.0000 C   0  0  0  0  0  0  0  0  0  0  0  0
   -1.7862    1.8562    0.0000 C   0  0  0  0  0  0  0  0  0  0  0  0
   -1.0718    1.4438    0.0000 C   0  0  0  0  0  0  0  0  0  0  0  0
  1  2  2  0      
  2  3  1  0      
  3  4  1  0      
  4  5  1  0      
  5  6  1  0      
  6  7  2  0      
  7  8  1  0      
  8  9  2  0      
  9 10  1  0      
 10 11  2  0      
  2 11  1  0      
  6 11  1  0      
  4 12  1  0      
 12 13  2  0      
 13 14  1  0      
 14 15  2  0      
 15 16  1  0      
 16 17  2  0      
 12 17  1  0      
M  END
>  <Bioactivity>
Used as organic synthesis and medicine intermediate.

>  <CAS>
487-26-3

>  <Col>
3

>  <Formula>
C15H12O2

>  <ID>
T0530

>  <Index>
92

>  <MOLENAME>
Flavanone

>  <MolWt>
224.26

>  <Pathways>
Others

>  <Plate>
PLATE 002

>  <QR code>
1152411604

>  <Receptor>
Others

>  <Reference>
1. Kean RJ, et al. Am J Clin Nutr. 2015 Mar; 101(3):506-14.

>  <Row>
B

>  <SMILES>
O=C1CC(OC2=CC=CC=C12)C1=CC=CC=C1

>  <Target>
Intermediates

>  <Weight>
10mg

$$$$
Lab-1.sdf
  ChemDraw05232018482D

 14 14  0  0  0  0  0  0  0  0999 V2000
    1.4289    2.4750    0.0000 C   0  0  0  0  0  0  0  0  0  0  0  0
    0.7145    2.0625    0.0000 O   0  0  0  0  0  0  0  0  0  0  0  0
    0.7145    1.2375    0.0000 C   0  0  0  0  0  0  0  0  0  0  0  0
    1.4289    0.8250    0.0000 C   0  0  0  0  0  0  0  0  0  0  0  0
    2.1434    1.2375    0.0000 O   0  0  0  0  0  0  0  0  0  0  0  0
    1.4289    0.0000    0.0000 C   0  0  0  0  0  0  0  0  0  0  0  0
    0.7145   -0.4125    0.0000 C   0  0  0  0  0  0  0  0  0  0  0  0
   -0.0000    0.0000    0.0000 C   0  0  0  0  0  0  0  0  0  0  0  0
   -0.7145   -0.4125    0.0000 C   0  0  0  0  0  0  0  0  0  0  0  0
   -0.7145   -1.2375    0.0000 C   0  0  0  0  0  0  0  0  0  0  0  0
   -1.4289   -1.6500    0.0000 C   0  0  0  0  0  0  0  0  0  0  0  0
   -1.4289   -2.4750    0.0000 O   0  0  0  0  0  0  0  0  0  0  0  0
   -2.1434   -1.2375    0.0000 O   0  0  0  0  0  0  0  0  0  0  0  0
   -0.0000    0.8250    0.0000 C   0  0  0  0  0  0  0  0  0  0  0  0
  1  2  1  0      
  2  3  1  0      
  3  4  2  0      
  4  5  1  0      
  4  6  1  0      
  6  7  2  0      
  7  8  1  0      
  8  9  1  0      
  9 10  1  0      
 10 11  1  0      
 11 12  1  0      
 11 13  2  0      
  8 14  2  0      
  3 14  1  0      
M  END
>  <Bioactivity>
used as the intermediates of essence and perfume 

>  <CAS>
1135-23-5

>  <Col>
4

>  <Formula>
C10H12O4

>  <ID>
T0558

>  <Index>
93

>  <MOLENAME>
Hydroferulic acid

>  <MolWt>
196.2

>  <Pathways>
Others

>  <Plate>
PLATE 002

>  <QR code>
1152411605

>  <Receptor>
Others

>  <Reference>
1. Garcia-Conesa MT, et al. Redox Rep. 1997 Oct-Dec;3(5-6):319-23.

>  <Row>
B

>  <SMILES>
COC1=C(O)C=CC(CCC(O)=O)=C1

>  <Target>
Intermediates

>  <Weight>
10.3mg

$$$$
Lab-1.sdf
  ChemDraw05232018482D

 11 11  0  0  0  0  0  0  0  0999 V2000
   -1.0717    1.8562    0.0000 O   0  0  0  0  0  0  0  0  0  0  0  0
   -0.3572    1.4438    0.0000 C   0  0  0  0  0  0  0  0  0  0  0  0
    0.3572    1.8562    0.0000 O   0  0  0  0  0  0  0  0  0  0  0  0
   -0.3572    0.6188    0.0000 C   0  0  0  0  0  0  0  0  0  0  0  0
    0.3572    0.2063    0.0000 C   0  0  0  0  0  0  0  0  0  0  0  0
    0.3572   -0.6187    0.0000 C   0  0  0  0  0  0  0  0  0  0  0  0
    1.0717   -1.0312    0.0000 O   0  0  0  0  0  0  0  0  0  0  0  0
   -0.3572   -1.0312    0.0000 C   0  0  0  0  0  0  0  0  0  0  0  0
   -0.3572   -1.8562    0.0000 O   0  0  0  0  0  0  0  0  0  0  0  0
   -1.0717   -0.6187    0.0000 C   0  0  0  0  0  0  0  0  0  0  0  0
   -1.0717    0.2063    0.0000 C   0  0  0  0  0  0  0  0  0  0  0  0
  1  2  1  0      
  2  3  2  0      
  2  4  1  0      
  4  5  2  0      
  5  6  1  0      
  6  7  1  0      
  6  8  2  0      
  8  9  1  0      
  8 10  1  0      
 10 11  2  0      
  4 11  1  0      
M  END
>  <Bioactivity>
Protocatechuic acid (PCA) is a dihydroxybenzoic acid, a type of phenolic acid. It is a major metabolite of antioxidant polyphenols found in green tea. It has mixed effects on normal and Y cells in in 
vitro and in vivo studies.

>  <CAS>
99-50-3

>  <Col>
5

>  <Formula>
C7H6O4

>  <ID>
T0562

>  <Index>
94

>  <MOLENAME>
Protocatechuic acid

>  <MolWt>
154.12

>  <Pathways>
Others

>  <Plate>
PLATE 002

>  <QR code>
1152411606

>  <Receptor>
Others

>  <Reference>
1. Lv Y, et al. Biotechnol Lett. 2014 Nov; 36(11):2303-10. 

>  <Row>
B

>  <SMILES>
OC(=O)C1=CC(O)=C(O)C=C1

>  <Target>
Others

>  <Weight>
10mg

$$$$
Lab-1.sdf
  ChemDraw05232018482D

 14 14  0  0  0  0  0  0  0  0999 V2000
   -1.0717    2.4749    0.0000 C   0  0  0  0  0  0  0  0  0  0  0  0
   -0.3572    2.0624    0.0000 O   0  0  0  0  0  0  0  0  0  0  0  0
   -0.3572    1.2375    0.0000 C   0  0  0  0  0  0  0  0  0  0  0  0
    0.3572    0.8250    0.0000 C   0  0  0  0  0  0  0  0  0  0  0  0
    1.0717    1.2375    0.0000 O   0  0  0  0  0  0  0  0  0  0  0  0
    1.7861    0.8250    0.0000 C   0  0  0  0  0  0  0  0  0  0  0  0
    0.3572   -0.0000    0.0000 C   0  0  0  0  0  0  0  0  0  0  0  0
   -0.3572   -0.4125    0.0000 C   0  0  0  0  0  0  0  0  0  0  0  0
   -0.3572   -1.2375    0.0000 C   0  0  0  0  0  0  0  0  0  0  0  0
   -1.0717   -1.6500    0.0000 C   0  0  0  0  0  0  0  0  0  0  0  0
   -1.0717   -2.4749    0.0000 O   0  0  0  0  0  0  0  0  0  0  0  0
   -1.7861   -1.2375    0.0000 O   0  0  0  0  0  0  0  0  0  0  0  0
   -1.0717   -0.0000    0.0000 C   0  0  0  0  0  0  0  0  0  0  0  0
   -1.0717    0.8250    0.0000 C   0  0  0  0  0  0  0  0  0  0  0  0
  1  2  1  0      
  2  3  1  0      
  3  4  2  0      
  4  5  1  0      
  5  6  1  0      
  4  7  1  0      
  7  8  2  0      
  8  9  1  0      
  9 10  1  0      
 10 11  1  0      
 10 12  2  0      
  8 13  1  0      
 13 14  2  0      
  3 14  1  0      
M  END
>  <Bioactivity>
Papaverine intermediate, used to synthesis cardiovascular drugs, such as verapamil, bevantolol, etc.

>  <CAS>
93-40-3

>  <Col>
6

>  <Formula>
C10H12O4

>  <ID>
T0568

>  <Index>
95

>  <MOLENAME>
Homoveratrumic acid

>  <MolWt>
196.2

>  <Pathways>
Others

>  <Plate>
PLATE 002

>  <QR code>
1152411607

>  <Receptor>
Others

>  <Reference>
1. Dana M, et al. Molecules. 2011 May 5;16(5):3826-44. 

>  <Row>
B

>  <SMILES>
COC1=C(OC)C=C(CC(O)=O)C=C1

>  <Target>
Intermediates

>  <Weight>
10.4mg

$$$$
Lab-1.sdf
  ChemDraw05232018482D

 16 16  0  0  0  0  0  0  0  0999 V2000
   -0.3573    2.4750    0.0000 C   0  0  0  0  0  0  0  0  0  0  0  0
   -0.3573    1.6500    0.0000 O   0  0  0  0  0  0  0  0  0  0  0  0
    0.3572    1.2375    0.0000 C   0  0  0  0  0  0  0  0  0  0  0  0
    1.0716    1.6500    0.0000 O   0  0  0  0  0  0  0  0  0  0  0  0
    0.3572    0.4125    0.0000 C   0  0  0  0  0  0  0  0  0  0  0  0
    1.0716    0.0000    0.0000 C   0  0  0  0  0  0  0  0  0  0  0  0
    1.0716   -0.8250    0.0000 C   0  0  0  0  0  0  0  0  0  0  0  0
    1.7861   -1.2375    0.0000 O   0  0  0  0  0  0  0  0  0  0  0  0
    1.7861   -2.0625    0.0000 C   0  0  0  0  0  0  0  0  0  0  0  0
    0.3572   -1.2375    0.0000 C   0  0  0  0  0  0  0  0  0  0  0  0
    0.3572   -2.0625    0.0000 O   0  0  0  0  0  0  0  0  0  0  0  0
    1.0716   -2.4750    0.0000 C   0  0  0  0  0  0  0  0  0  0  0  0
   -0.3573   -0.8250    0.0000 C   0  0  0  0  0  0  0  0  0  0  0  0
   -1.0718   -1.2375    0.0000 O   0  0  0  0  0  0  0  0  0  0  0  0
   -1.7861   -0.8250    0.0000 C   0  0  0  0  0  0  0  0  0  0  0  0
   -0.3573    0.0000    0.0000 C   0  0  0  0  0  0  0  0  0  0  0  0
  1  2  1  0      
  2  3  1  0      
  3  4  2  0      
  3  5  1  0      
  5  6  2  0      
  6  7  1  0      
  7  8  1  0      
  8  9  1  0      
  7 10  2  0      
 10 11  1  0      
 11 12  1  0      
 10 13  1  0      
 13 14  1  0      
 14 15  1  0      
 13 16  2  0      
  5 16  1  0      
M  END
>  <Bioactivity>
It is the intermediates of antibacterial efficiency medicine trimethoprim

>  <CAS>
1916-07-0

>  <Col>
7

>  <Formula>
C11H14O5

>  <ID>
T0572

>  <Index>
96

>  <MOLENAME>
Methyl EudesMate

>  <MolWt>
226.23

>  <Pathways>
Others

>  <Plate>
PLATE 002

>  <QR code>
1152411608

>  <Receptor>
Others

>  <Reference>
1. Kozhechkin SN, et al. Eksp Klin Farmakol. 2005 Jul-Aug;68(4):3-6.

>  <Row>
B

>  <SMILES>
COC(=O)C1=CC(OC)=C(OC)C(OC)=C1

>  <Target>
Intermediates

>  <Weight>
10.2mg

$$$$
Lab-1.sdf
  ChemDraw05232018482D

 23 25  0  0  0  0  0  0  0  0999 V2000
   -3.2151    0.2062    0.0000 O   0  0  0  0  0  0  0  0  0  0  0  0
   -2.5007   -0.2062    0.0000 C   0  0  0  0  0  0  0  0  0  0  0  0
   -2.5007   -1.0312    0.0000 C   0  0  0  0  0  0  0  0  0  0  0  0
   -1.7862   -1.4438    0.0000 C   0  0  0  0  0  0  0  0  0  0  0  0
   -1.7862   -2.2687    0.0000 O   0  0  0  0  0  0  0  0  0  0  0  0
   -1.0717   -1.0312    0.0000 C   0  0  0  0  0  0  0  0  0  0  0  0
   -1.0717   -0.2062    0.0000 C   0  0  0  0  0  0  0  0  0  0  0  0
   -0.3573    0.2062    0.0000 O   0  0  0  0  0  0  0  0  0  0  0  0
    0.3572   -0.2062    0.0000 C   0  0  0  0  0  0  0  0  0  0  0  0
    0.3572   -1.0312    0.0000 C   0  0  0  0  0  0  0  0  0  0  0  0
    1.0717   -1.4438    0.0000 O   0  0  0  0  0  0  0  0  0  0  0  0
   -0.3573   -1.4438    0.0000 C   0  0  0  0  0  0  0  0  0  0  0  0
   -0.3573   -2.2687    0.0000 O   0  0  0  0  0  0  0  0  0  0  0  0
    1.0717    0.2062    0.0000 C   0  0  0  0  0  0  0  0  0  0  0  0
    1.0717    1.0312    0.0000 C   0  0  0  0  0  0  0  0  0  0  0  0
    1.7862    1.4438    0.0000 C   0  0  0  0  0  0  0  0  0  0  0  0
    1.7862    2.2687    0.0000 O   0  0  0  0  0  0  0  0  0  0  0  0
    2.5006    1.0312    0.0000 C   0  0  0  0  0  0  0  0  0  0  0  0
    3.2151    1.4438    0.0000 O   0  0  0  0  0  0  0  0  0  0  0  0
    2.5006    0.2062    0.0000 C   0  0  0  0  0  0  0  0  0  0  0  0
    3.2151   -0.2062    0.0000 O   0  0  0  0  0  0  0  0  0  0  0  0
    1.7862   -0.2062    0.0000 C   0  0  0  0  0  0  0  0  0  0  0  0
   -1.7862    0.2062    0.0000 C   0  0  0  0  0  0  0  0  0  0  0  0
  1  2  1  0      
  2  3  2  0      
  3  4  1  0      
  4  5  1  0      
  4  6  2  0      
  6  7  1  0      
  7  8  1  0      
  8  9  1  0      
  9 10  2  0      
 10 11  1  0      
 10 12  1  0      
  6 12  1  0      
 12 13  2  0      
  9 14  1  0      
 14 15  2  0      
 15 16  1  0      
 16 17  1  0      
 16 18  2  0      
 18 19  1  0      
 18 20  1  0      
 20 21  1  0      
 20 22  2  0      
 14 22  1  0      
  7 23  2  0      
  2 23  1  0      
M  END
>  <Bioactivity>
Myricetin is produced from the parent compound taxifolin through the (+)-dihydromyricetin intermediate and can be further processed to form laricitrin and then syringetin, both members of the flavonol
 class of flavonoids. Dihydromyricetin is frequently sold as a supplement and has controversial function as a partial GABAA receptor potentiator and treatment in Alcohol Use Disorder (AUD). 

>  <CAS>
529-44-2

>  <Col>
8

>  <Formula>
C15H10O8

>  <ID>
T0579

>  <Index>
97

>  <MOLENAME>
Myricetin

>  <MolWt>
318.24

>  <Pathways>
Immunology/Inflammation

>  <Plate>
PLATE 002

>  <QR code>
1152411609

>  <Receptor>
Antioxidant

>  <Reference>
1. Flamini R, et al. Int J Mol Sci. 2013 Sep 27;14(10):19651-69. 

>  <Row>
B

>  <SMILES>
OC1=CC(O)=C2C(OC(=C(O)C2=O)C2=CC(O)=C(O)C(O)=C2)=C1

>  <Target>
ROS inhibitor

>  <Weight>
10.2mg

$$$$
Lab-1.sdf
  ChemDraw05232018482D

 19 20  0  0  0  0  0  0  0  0999 V2000
   -1.4289    1.8562    0.0000 C   0  0  0  0  0  0  0  0  0  0  0  0
   -1.4289    1.0312    0.0000 C   0  0  0  0  0  0  0  0  0  0  0  0
   -0.7145    0.6187    0.0000 C   0  0  0  0  0  0  0  0  0  0  0  0
   -0.0000    1.0312    0.0000 C   0  0  0  0  0  0  0  0  0  0  0  0
   -0.0000    1.8562    0.0000 O   0  0  0  0  0  0  0  0  0  0  0  0
    0.7145    0.6187    0.0000 N   0  0  0  0  0  0  0  0  0  0  0  0
    1.4289    1.0312    0.0000 C   0  0  0  0  0  0  0  0  0  0  0  0
    2.1433    0.6187    0.0000 C   0  0  0  0  0  0  0  0  0  0  0  0
    2.8578    1.0312    0.0000 O   0  0  0  0  0  0  0  0  0  0  0  0
   -0.7145   -0.2062    0.0000 N   0  3  0  0  0  0  0  0  0  0  0  0
   -0.0000   -0.6187    0.0000 O   0  0  0  0  0  0  0  0  0  0  0  0
   -1.4289   -0.6187    0.0000 C   0  0  0  0  0  0  0  0  0  0  0  0
   -1.4289   -1.4437    0.0000 C   0  0  0  0  0  0  0  0  0  0  0  0
   -2.1433   -1.8562    0.0000 C   0  0  0  0  0  0  0  0  0  0  0  0
   -2.8578   -1.4437    0.0000 C   0  0  0  0  0  0  0  0  0  0  0  0
   -2.8578   -0.6187    0.0000 C   0  0  0  0  0  0  0  0  0  0  0  0
   -2.1433   -0.2062    0.0000 C   0  0  0  0  0  0  0  0  0  0  0  0
   -2.1433    0.6187    0.0000 N   0  0  0  0  0  0  0  0  0  0  0  0
   -2.8578    1.0312    0.0000 O   0  5  0  0  0  0  0  0  0  0  0  0
  1  2  1  0      
  2  3  2  0      
  3  4  1  0      
  4  5  2  0      
  4  6  1  0      
  6  7  1  0      
  7  8  1  0      
  8  9  1  0      
  3 10  1  0      
 10 11  2  0      
 10 12  1  0      
 12 13  2  0      
 13 14  1  0      
 14 15  2  0      
 15 16  1  0      
 16 17  2  0      
 12 17  1  0      
 17 18  1  0      
  2 18  1  0      
 18 19  1  0      
M  CHG  2  10   1  19  -1
M  END
>  <Bioactivity>
Store the product in sealed, cool and dry condition.

>  <CAS>
23696-28-8

>  <Col>
9

>  <Formula>
C12H13N3O4

>  <ID>
T2779

>  <Index>
98

>  <MOLENAME>
Olaquindox

>  <MolWt>
263.25

>  <Pathways>
Others

>  <Plate>
PLATE 002

>  <QR code>
1152411610

>  <Receptor>
Others

>  <Reference>
1. Zhao WX, et al. Cell Biol Toxicol. 2013 Aug;29(4):229-38.

>  <Row>
B

>  <SMILES>
CC1=C(C(=O)NCCO)[N+](=O)C2=CC=CC=C2N1[O-]

>  <Target>
Others

>  <Weight>
10.3mg

$$$$
Lab-1.sdf
  ChemDraw05232018482D

 12 12  0  0  0  0  0  0  0  0999 V2000
   -2.7962   -0.1227    0.0000 O   0  0  0  0  0  0  0  0  0  0  0  0
   -2.0817    0.2897    0.0000 C   0  0  0  0  0  0  0  0  0  0  0  0
   -2.0817    1.1147    0.0000 O   0  0  0  0  0  0  0  0  0  0  0  0
   -1.3672   -0.1227    0.0000 C   0  0  0  0  0  0  0  0  0  0  0  0
   -0.6528    0.2897    0.0000 C   0  0  0  0  0  0  0  0  0  0  0  0
    0.0616   -0.1227    0.0000 C   0  0  0  0  0  0  0  0  0  0  0  0
    0.7761    0.2897    0.0000 C   0  0  0  0  0  0  0  0  0  0  0  0
    1.4905   -0.1227    0.0000 C   0  0  0  0  0  0  0  0  0  0  0  0
    2.2442    0.2128    0.0000 C   0  0  0  0  0  0  0  0  0  0  0  0
    2.7962   -0.4002    0.0000 C   0  0  0  0  0  0  0  0  0  0  0  0
    2.3837   -1.1147    0.0000 S   0  0  0  0  0  0  0  0  0  0  0  0
    1.5768   -0.9431    0.0000 S   0  0  0  0  0  0  0  0  0  0  0  0
  1  2  1  0      
  2  3  2  0      
  2  4  1  0      
  4  5  1  0      
  5  6  1  0      
  6  7  1  0      
  7  8  1  0      
  8  9  1  0      
  9 10  1  0      
 10 11  1  0      
 11 12  1  0      
  8 12  1  0      
M  END
>  <Bioactivity>
Extracted from potato, spinach, broccoli, tomato, carrot,hepar;Store the product in sealed, cool and dry condition

>  <CAS>
62-46-4

>  <Col>
10

>  <Formula>
C8H14O2S2

>  <ID>
T2930

>  <Index>
99

>  <MOLENAME>
Alphalipoic acid

>  <MolWt>
206.32

>  <Pathways>
Others

>  <Plate>
PLATE 002

>  <QR code>
1152411611

>  <Receptor>
Others

>  <Reference>
1. Tayebati SK, et al. Clin Exp Hypertens. 2015 Aug 19:1-9. 

>  <Row>
B

>  <SMILES>
OC(=O)CCCCC1CCSS1

>  <Target>
Others

>  <Weight>
10.4mg

$$$$
Lab-1.sdf
  ChemDraw05232018482D

 34 37  0  0  0  0  0  0  0  0999 V2000
   -5.0724   -0.0847    0.0000 O   0  0  0  0  0  0  0  0  0  0  0  0
   -2.7153    1.3049    0.0000 C   0  0  0  0  0  0  0  0  0  0  0  0
   -1.9401    1.0227    0.0000 C   0  0  0  0  0  0  0  0  0  0  0  0
   -1.7969    1.8352    0.0000 C   0  0  0  0  0  0  0  0  0  0  0  0
   -2.3525    0.3082    0.0000 C   0  0  0  0  0  0  0  0  0  0  0  0
   -1.9401   -0.4062    0.0000 C   0  0  0  0  0  0  0  0  0  0  0  0
   -1.1151   -0.4062    0.0000 C   0  0  0  0  0  0  0  0  0  0  0  0
   -0.7026   -1.1207    0.0000 C   0  0  0  0  0  0  0  0  0  0  0  0
    0.1224   -1.1207    0.0000 C   0  0  0  0  0  0  0  0  0  0  0  0
    0.5349   -0.4062    0.0000 C   0  0  0  0  0  0  0  0  0  0  0  0
    0.9474   -1.1207    0.0000 C   0  0  0  0  0  0  0  0  0  0  0  0
    0.1224    0.3082    0.0000 C   0  0  0  0  0  0  0  0  0  0  0  0
    0.5349    1.0227    0.0000 C   0  0  0  0  0  0  0  0  0  0  0  0
    1.3599    1.0227    0.0000 C   0  0  0  0  0  0  0  0  0  0  0  0
    1.7724    0.3082    0.0000 C   0  0  0  0  0  0  0  0  0  0  0  0
    2.5974    0.3082    0.0000 C   0  0  0  0  0  0  0  0  0  0  0  0
    2.1849    1.0227    0.0000 C   0  0  0  0  0  0  0  0  0  0  0  0
    3.0099    1.0227    0.0000 C   0  0  0  0  0  0  0  0  0  0  0  0
    3.8349    1.0227    0.0000 C   0  0  0  0  0  0  0  0  0  0  0  0
    4.2474    0.3082    0.0000 C   0  0  0  0  0  0  0  0  0  0  0  0
    5.0724    0.3082    0.0000 O   0  0  0  0  0  0  0  0  0  0  0  0
    3.8349   -0.4062    0.0000 C   0  0  0  0  0  0  0  0  0  0  0  0
    4.6101   -0.6884    0.0000 C   0  0  0  0  0  0  0  0  0  0  0  0
    3.6916   -1.2187    0.0000 C   0  0  0  0  0  0  0  0  0  0  0  0
    3.0099   -0.4062    0.0000 C   0  0  0  0  0  0  0  0  0  0  0  0
    2.5974   -1.1207    0.0000 C   0  0  0  0  0  0  0  0  0  0  0  0
    1.7724   -1.1207    0.0000 C   0  0  0  0  0  0  0  0  0  0  0  0
    1.3599   -0.4062    0.0000 C   0  0  0  0  0  0  0  0  0  0  0  0
    1.4461   -1.2267    0.0000 C   0  0  0  0  0  0  0  0  0  0  0  0
   -0.7026    0.3082    0.0000 C   0  0  0  0  0  0  0  0  0  0  0  0
   -1.1151    1.0227    0.0000 C   0  0  0  0  0  0  0  0  0  0  0  0
   -1.5276   -1.1207    0.0000 C   0  0  0  0  0  0  0  0  0  0  0  0
   -1.1151   -1.8352    0.0000 O   0  0  0  0  0  0  0  0  0  0  0  0
   -2.3525   -1.1207    0.0000 O   0  0  0  0  0  0  0  0  0  0  0  0
  2  3  1  0      
  3  4  1  0      
  3  5  1  0      
  5  6  1  0      
  6  7  1  0      
  7  8  1  0      
  8  9  1  0      
  9 10  1  0      
 10 11  1  0      
 10 12  1  0      
 12 13  2  0      
 13 14  1  0      
 14 15  1  0      
 15 16  1  0      
 16 17  1  0      
 16 18  1  0      
 18 19  1  0      
 19 20  1  0      
 20 21  1  0      
 20 22  1  0      
 22 23  1  0      
 22 24  1  0      
 22 25  1  0      
 16 25  1  0      
 25 26  1  0      
 26 27  1  0      
 27 28  1  0      
 10 28  1  0      
 15 28  1  0      
 28 29  1  0      
 12 30  1  0      
  7 30  1  0      
 30 31  1  0      
  3 31  1  0      
  7 32  1  0      
 32 33  1  0      
 32 34  2  0      
M  END
>  <Bioactivity>
Oleanolic Acid is a naturally occurring triterpenoid found in garlic and Phytolacca Americana. Exhibits strong anti-HIV activity. Mechanism of action is the induction of iNOS and of Cyclooxygenase 2

>  <CAS>
508-02-1

>  <Col>
11

>  <Formula>
C30H48O3

>  <ID>
T2865

>  <Index>
100

>  <MOLENAME>
Oleanolic Acid

>  <MolWt>
456.72

>  <Pathways>
Others

>  <Plate>
PLATE 002

>  <QR code>
1152411612

>  <Receptor>
Others

>  <Reference>
1. Liu J, J Ethnopharmacol, 1995, 49(2), 57-68.

>  <Row>
B

>  <SMILES>
O.CC1(C)CCC2(CCC3(C)C(=CCC4C5(C)CCC(O)C(C)(C)C5CCC34C)C2C1)C(O)=O

>  <Target>
Others

>  <Weight>
10.2mg

$$$$
Lab-1.sdf
  ChemDraw05232018482D

 16 16  0  0  0  0  0  0  0  0999 V2000
   -2.1434    3.0937    0.0000 C   0  0  0  0  0  0  0  0  0  0  0  0
   -1.4290    2.6812    0.0000 C   0  0  0  0  0  0  0  0  0  0  0  0
   -1.4290    1.8562    0.0000 O   0  0  0  0  0  0  0  0  0  0  0  0
   -0.7145    1.4437    0.0000 C   0  0  0  0  0  0  0  0  0  0  0  0
   -0.0000    1.8562    0.0000 O   0  0  0  0  0  0  0  0  0  0  0  0
   -0.7145    0.6187    0.0000 C   0  0  0  0  0  0  0  0  0  0  0  0
   -0.0000    0.2062    0.0000 C   0  0  0  0  0  0  0  0  0  0  0  0
   -0.0000   -0.6188    0.0000 C   0  0  0  0  0  0  0  0  0  0  0  0
    0.7144   -1.0312    0.0000 C   0  0  0  0  0  0  0  0  0  0  0  0
    0.7144   -1.8562    0.0000 C   0  0  0  0  0  0  0  0  0  0  0  0
    1.4289   -2.2687    0.0000 O   0  0  0  0  0  0  0  0  0  0  0  0
    2.1434   -1.8562    0.0000 C   0  0  0  0  0  0  0  0  0  0  0  0
   -0.0000   -2.2687    0.0000 C   0  0  0  0  0  0  0  0  0  0  0  0
   -0.0000   -3.0937    0.0000 O   0  0  0  0  0  0  0  0  0  0  0  0
   -0.7145   -1.8562    0.0000 C   0  0  0  0  0  0  0  0  0  0  0  0
   -0.7145   -1.0312    0.0000 C   0  0  0  0  0  0  0  0  0  0  0  0
  1  2  1  0      
  2  3  1  0      
  3  4  1  0      
  4  5  2  0      
  6  4  1  4      
  6  7  2  0      
  7  8  1  0      
  8  9  2  0      
  9 10  1  0      
 10 11  1  0      
 11 12  1  0      
 10 13  2  0      
 13 14  1  0      
 13 15  1  0      
 15 16  2  0      
  8 16  1  0      
M  END
>  <Bioactivity>
Extracted from angelica, Chuan Xiong;Store the product in sealed, cool and dry condition

>  <CAS>
4046-02-0

>  <Col>
2

>  <Formula>
C12H14O4

>  <ID>
T2821

>  <Index>
101

>  <MOLENAME>
Ethyl ferulate

>  <MolWt>
222.24

>  <Pathways>
Others

>  <Plate>
PLATE 002

>  <QR code>
1152411600

>  <Receptor>
Others

>  <Reference>
1. Nazar¨¦ AC, et al. Molecules. 2014 Jun 17;19(6):8124-39. 

>  <Row>
C

>  <SMILES>
CCOC(=O)C=CC1=CC(OC)=C(O)C=C1

>  <Target>
Others

>  <Weight>
10.3mg

$$$$
Lab-1.sdf
  ChemDraw05232018482D

 11 11  0  0  0  0  0  0  0  0999 V2000
   -1.0717    2.0625    0.0000 O   0  0  0  0  0  0  0  0  0  0  0  0
   -0.3572    1.6500    0.0000 C   0  0  0  0  0  0  0  0  0  0  0  0
    0.3573    2.0625    0.0000 O   0  0  0  0  0  0  0  0  0  0  0  0
   -0.3572    0.8250    0.0000 C   0  0  0  0  0  0  0  0  0  0  0  0
    0.3573    0.4125    0.0000 C   0  0  0  0  0  0  0  0  0  0  0  0
    0.3573   -0.4125    0.0000 C   0  0  0  0  0  0  0  0  0  0  0  0
    1.0717   -0.8250    0.0000 C   0  0  0  0  0  0  0  0  0  0  0  0
    1.0717   -1.6500    0.0000 C   0  0  0  0  0  0  0  0  0  0  0  0
    0.3573   -2.0625    0.0000 C   0  0  0  0  0  0  0  0  0  0  0  0
   -0.3572   -1.6500    0.0000 C   0  0  0  0  0  0  0  0  0  0  0  0
   -0.3572   -0.8250    0.0000 C   0  0  0  0  0  0  0  0  0  0  0  0
  1  2  1  0      
  2  3  2  0      
  4  2  1  4      
  4  5  2  0      
  5  6  1  0      
  6  7  2  0      
  7  8  1  0      
  8  9  2  0      
  9 10  1  0      
 10 11  2  0      
  6 11  1  0      
M  END
>  <Bioactivity>
Cinnamic acid exerts anti-diabetic activity by improving glucose tolerance in vivo and by stimulating insulin secretion in vitro.

>  <CAS>
140-10-3

>  <Col>
3

>  <Formula>
C9H8O2

>  <ID>
T2740

>  <Index>
102

>  <MOLENAME>
Cinnamic acid

>  <MolWt>
148.16

>  <Pathways>
Others

>  <Plate>
PLATE 002

>  <QR code>
1152411599

>  <Receptor>
Others

>  <Reference>
1. Hafizur RM, et al. Phytomedicine. 2015 Feb 15;22(2):297-300.

>  <Row>
C

>  <SMILES>
OC(=O)C=CC1=CC=CC=C1

>  <Target>
Others

>  <Weight>
10mg

$$$$
Lab-1.sdf
  ChemDraw05232018482D

 58 64  0  0  0  0  0  0  0  0999 V2000
    1.3853    3.2600    0.0000 C   0  0  0  0  0  0  0  0  0  0  0  0
    1.5286    2.4477    0.0000 C   0  0  0  0  0  0  0  0  0  0  0  0
    2.3038    2.7297    0.0000 C   0  0  0  0  0  0  0  0  0  0  0  0
    1.9411    1.7331    0.0000 C   0  0  0  0  0  0  0  0  0  0  0  0
    1.5286    1.0186    0.0000 C   0  0  0  0  0  0  0  0  0  0  0  0
    0.7036    1.0186    0.0000 C   0  0  0  0  0  0  0  0  0  0  0  0
    0.2911    1.7331    0.0000 C   0  0  0  0  0  0  0  0  0  0  0  0
   -0.1214    1.0186    0.0000 C   0  0  0  0  0  0  0  0  0  0  0  0
    0.7036    2.4477    0.0000 C   0  0  0  0  0  0  0  0  0  0  0  0
    0.2911    3.1620    0.0000 C   0  0  0  0  0  0  0  0  0  0  0  0
   -0.5339    3.1620    0.0000 C   0  0  0  0  0  0  0  0  0  0  0  0
   -0.9463    2.4477    0.0000 C   0  0  0  0  0  0  0  0  0  0  0  0
   -1.3588    3.1620    0.0000 C   0  0  0  0  0  0  0  0  0  0  0  0
   -0.5339    1.7331    0.0000 C   0  0  0  0  0  0  0  0  0  0  0  0
   -0.9463    1.0186    0.0000 C   0  0  0  0  0  0  0  0  0  0  0  0
   -0.5339    0.3043    0.0000 O   0  0  0  0  0  0  0  0  0  0  0  0
   -1.7713    1.0186    0.0000 C   0  0  0  0  0  0  0  0  0  0  0  0
   -2.1838    1.7331    0.0000 C   0  0  0  0  0  0  0  0  0  0  0  0
   -3.0088    1.7331    0.0000 C   0  0  0  0  0  0  0  0  0  0  0  0
   -3.4213    1.0186    0.0000 C   0  0  0  0  0  0  0  0  0  0  0  0
   -4.2463    1.0186    0.0000 C   0  0  0  0  0  0  0  0  0  0  0  0
   -4.1031    0.2063    0.0000 C   0  0  0  0  0  0  0  0  0  0  0  0
   -4.6588    1.7331    0.0000 C   0  0  0  0  0  0  0  0  0  0  0  0
   -4.2463    2.4477    0.0000 C   0  0  0  0  0  0  0  0  0  0  0  0
   -3.4213    2.4477    0.0000 C   0  0  0  0  0  0  0  0  0  0  0  0
   -3.8338    3.1620    0.0000 C   0  0  0  0  0  0  0  0  0  0  0  0
   -3.0088    3.1620    0.0000 C   0  0  0  0  0  0  0  0  0  0  0  0
   -2.1838    3.1620    0.0000 C   0  0  0  0  0  0  0  0  0  0  0  0
   -1.7713    2.4477    0.0000 C   0  0  0  0  0  0  0  0  0  0  0  0
   -1.8576    3.2681    0.0000 C   0  0  0  0  0  0  0  0  0  0  0  0
   -5.0216    0.7366    0.0000 C   0  0  0  0  0  0  0  0  0  0  0  0
   -5.1648   -0.0759    0.0000 O   0  0  0  0  0  0  0  0  0  0  0  0
   -5.6536    1.2669    0.0000 O   0  0  0  0  0  0  0  0  0  0  0  0
    2.7661    1.7331    0.0000 O   0  0  0  0  0  0  0  0  0  0  0  0
    3.1786    1.0186    0.0000 C   0  0  0  0  0  0  0  0  0  0  0  0
    4.0036    1.0186    0.0000 O   0  0  0  0  0  0  0  0  0  0  0  0
    4.4161    0.3043    0.0000 C   0  0  0  0  0  0  0  0  0  0  0  0
    4.0036   -0.4102    0.0000 C   0  0  0  0  0  0  0  0  0  0  0  0
    4.4161   -1.1247    0.0000 O   0  0  0  0  0  0  0  0  0  0  0  0
    3.1786   -0.4102    0.0000 C   0  0  0  0  0  0  0  0  0  0  0  0
    2.7661   -1.1247    0.0000 O   0  0  0  0  0  0  0  0  0  0  0  0
    2.7661    0.3043    0.0000 C   0  0  0  0  0  0  0  0  0  0  0  0
    1.9411    0.3043    0.0000 O   0  0  0  0  0  0  0  0  0  0  0  0
    1.5286   -0.4102    0.0000 C   0  0  0  0  0  0  0  0  0  0  0  0
    1.9411   -1.1247    0.0000 O   0  0  0  0  0  0  0  0  0  0  0  0
    1.5286   -1.8392    0.0000 C   0  0  0  0  0  0  0  0  0  0  0  0
    0.7036   -1.8392    0.0000 C   0  0  0  0  0  0  0  0  0  0  0  0
    0.2911   -2.5536    0.0000 O   0  0  0  0  0  0  0  0  0  0  0  0
    0.2911   -1.1247    0.0000 C   0  0  0  0  0  0  0  0  0  0  0  0
   -0.5339   -1.1247    0.0000 O   0  0  0  0  0  0  0  0  0  0  0  0
    0.7036   -0.4102    0.0000 C   0  0  0  0  0  0  0  0  0  0  0  0
    0.2911    0.3043    0.0000 O   0  0  0  0  0  0  0  0  0  0  0  0
    1.9411   -2.5536    0.0000 C   0  0  0  0  0  0  0  0  0  0  0  0
    1.5286   -3.2681    0.0000 O   0  0  0  0  0  0  0  0  0  0  0  0
    2.7661   -2.5536    0.0000 O   0  0  0  0  0  0  0  0  0  0  0  0
    5.2411    0.3043    0.0000 C   0  0  0  0  0  0  0  0  0  0  0  0
    5.6536   -0.4102    0.0000 O   0  0  0  0  0  0  0  0  0  0  0  0
    5.6536    1.0186    0.0000 O   0  0  0  0  0  0  0  0  0  0  0  0
  1  2  1  0      
  2  3  1  0      
  2  4  1  0      
  4  5  1  0      
  5  6  1  0      
  6  7  1  0      
  7  8  1  0      
  7  9  1  0      
  2  9  1  0      
  9 10  1  0      
 10 11  1  0      
 11 12  1  0      
 12 13  1  0      
 12 14  1  0      
  7 14  1  0      
 14 15  1  0      
 15 16  2  0      
 15 17  1  0      
 17 18  2  0      
 18 19  1  0      
 19 20  1  0      
 20 21  1  0      
 21 22  1  0      
 21 23  1  0      
 23 24  1  0      
 24 25  1  0      
 19 25  1  0      
 25 26  1  0      
 25 27  1  0      
 27 28  1  0      
 28 29  1  0      
 12 29  1  0      
 18 29  1  0      
 29 30  1  0      
 21 31  1  0      
 31 32  1  0      
 31 33  2  0      
  4 34  1  0      
 34 35  1  0      
 35 36  1  0      
 36 37  1  0      
 37 38  1  0      
 38 39  1  0      
 38 40  1  0      
 40 41  1  0      
 40 42  1  0      
 35 42  1  0      
 42 43  1  0      
 43 44  1  0      
 44 45  1  0      
 45 46  1  0      
 46 47  1  0      
 47 48  1  0      
 47 49  1  0      
 49 50  1  0      
 49 51  1  0      
 44 51  1  0      
 51 52  1  0      
 46 53  1  0      
 53 54  1  0      
 53 55  2  0      
 37 56  1  0      
 56 57  1  0      
 56 58  2  0      
M  END
>  <Bioactivity>
Actions Biologically active constituent in the sweet root of Glycyrrhiza species (licorice). Antiviral. Packaging 25,100 g in poly bottle

>  <CAS>
1405-86-3

>  <Col>
4

>  <Formula>
C42H62O16

>  <ID>
T2741

>  <Index>
103

>  <MOLENAME>
Glycyrrhizin (Glycyrrhizic Acid)

>  <MolWt>
822.93

>  <Pathways>
Metabolism

>  <Plate>
PLATE 002

>  <QR code>
1152411598

>  <Receptor>
Dehydrogenase

>  <Reference>
1. Kiratipaiboon C, et al. Phytomedicine. 2015 Nov 14. pii: S0944-7113(15)00343-8. 

>  <Row>
C

>  <SMILES>
CC1(C)C(CCC2(C)C1CCC1(C)C2C(=O)C=C2C3CC(C)(CCC3(C)CCC12C)C(O)=O)OC1OC(C(O)C(O)C1OC1OC(C(O)C(O)C1O)C(O)=O)C(O)=O

>  <Target>
Dehydrogenase inhibitor

>  <Weight>
10.3mg

$$$$
Lab-1.sdf
  ChemDraw05232018482D

 11 11  0  0  0  0  0  0  0  0999 V2000
   -0.3572    1.8562    0.0000 C   0  0  0  0  0  0  0  0  0  0  0  0
    0.3573    1.4438    0.0000 C   0  0  0  0  0  0  0  0  0  0  0  0
    1.0717    1.8562    0.0000 C   0  0  0  0  0  0  0  0  0  0  0  0
    0.3573    0.6188    0.0000 C   0  0  0  0  0  0  0  0  0  0  0  0
    1.0717    0.2063    0.0000 C   0  0  0  0  0  0  0  0  0  0  0  0
    1.0717   -0.6187    0.0000 C   0  0  0  0  0  0  0  0  0  0  0  0
    0.3573   -1.0312    0.0000 C   0  0  0  0  0  0  0  0  0  0  0  0
    0.3573   -1.8562    0.0000 C   0  0  0  0  0  0  0  0  0  0  0  0
   -0.3572   -0.6187    0.0000 C   0  0  0  0  0  0  0  0  0  0  0  0
   -0.3572    0.2063    0.0000 C   0  0  0  0  0  0  0  0  0  0  0  0
   -1.0717    0.6188    0.0000 O   0  0  0  0  0  0  0  0  0  0  0  0
  1  2  1  0      
  2  3  1  0      
  2  4  1  0      
  4  5  1  0      
  5  6  1  0      
  6  7  1  0      
  7  8  1  0      
  7  9  1  0      
  9 10  1  0      
  4 10  1  0      
 10 11  1  0      
M  END
>  <Bioactivity>
Extracted from Herba Menthae Haplocalycis;Suitability:Alcohol,ether,acetic acid,liquid paraffin and petroleum ether;Store the product in sealed,cool and dry condition

>  <CAS>
89-78-1

>  <Col>
5

>  <Formula>
C10H20O

>  <ID>
T2979

>  <Index>
104

>  <MOLENAME>
DL-Menthol

>  <MolWt>
156.15

>  <Pathways>
Others

>  <Plate>
PLATE 002

>  <QR code>
1152411597

>  <Receptor>
Others

>  <Reference>
1. Wang DL, et al. J Agric Food Chem. 2002 Jan 16;50(2):262-5.

>  <Row>
C

>  <SMILES>
CC(C)C1CCC(C)CC1O

>  <Target>
Others

>  <Weight>
10.2mg

$$$$
Lab-1.sdf
  ChemDraw05232018482D

 12 12  0  0  0  0  0  0  0  0999 V2000
   -1.0717    2.4750    0.0000 C   0  0  0  0  0  0  0  0  0  0  0  0
   -0.3572    2.0625    0.0000 N   0  0  0  0  0  0  0  0  0  0  0  0
    0.3573    2.4750    0.0000 C   0  0  0  0  0  0  0  0  0  0  0  0
   -0.3572    1.2375    0.0000 C   0  0  0  0  0  0  0  0  0  0  0  0
    0.3573    0.8250    0.0000 C   0  0  0  0  0  0  0  0  0  0  0  0
    0.3573    0.0000    0.0000 C   0  0  0  0  0  0  0  0  0  0  0  0
    1.0717   -0.4125    0.0000 C   0  0  0  0  0  0  0  0  0  0  0  0
    1.0717   -1.2375    0.0000 C   0  0  0  0  0  0  0  0  0  0  0  0
    0.3573   -1.6500    0.0000 C   0  0  0  0  0  0  0  0  0  0  0  0
    0.3573   -2.4750    0.0000 O   0  0  0  0  0  0  0  0  0  0  0  0
   -0.3572   -1.2375    0.0000 C   0  0  0  0  0  0  0  0  0  0  0  0
   -0.3572   -0.4125    0.0000 C   0  0  0  0  0  0  0  0  0  0  0  0
  1  2  1  0      
  2  3  1  0      
  2  4  1  0      
  4  5  1  0      
  5  6  1  0      
  6  7  2  0      
  7  8  1  0      
  8  9  2  0      
  9 10  1  0      
  9 11  1  0      
 11 12  2  0      
  6 12  1  0      
M  END
>  <Bioactivity>
Extracted from Germinated barley seeds; Suitability:Ethanol,chloroform and ether;Store the product in sealed,cool and dry condition

>  <CAS>
539-15-1

>  <Col>
6

>  <Formula>
C10H15NO

>  <ID>
T2890

>  <Index>
105

>  <MOLENAME>
Hordenine

>  <MolWt>
165.23

>  <Pathways>
Others

>  <Plate>
PLATE 002

>  <QR code>
1152411596

>  <Receptor>
Others

>  <Reference>
1. Kim SC, et al. Food Chem. 2013 Nov 1;141(1):174-81.

>  <Row>
C

>  <SMILES>
CN(C)CCC1=CC=C(O)C=C1

>  <Target>
Others

>  <Weight>
10.1mg

$$$$
Lab-1.sdf
  ChemDraw05232018482D

 10 10  0  0  0  0  0  0  0  0999 V2000
   -0.7144    2.2687    0.0000 O   0  0  0  0  0  0  0  0  0  0  0  0
   -0.7144    1.4438    0.0000 C   0  0  0  0  0  0  0  0  0  0  0  0
    0.0001    1.0312    0.0000 C   0  0  0  0  0  0  0  0  0  0  0  0
    0.0001    0.2062    0.0000 C   0  0  0  0  0  0  0  0  0  0  0  0
    0.7144   -0.2062    0.0000 C   0  0  0  0  0  0  0  0  0  0  0  0
    0.7144   -1.0312    0.0000 C   0  0  0  0  0  0  0  0  0  0  0  0
    0.0001   -1.4438    0.0000 C   0  0  0  0  0  0  0  0  0  0  0  0
    0.0001   -2.2687    0.0000 O   0  0  0  0  0  0  0  0  0  0  0  0
   -0.7144   -1.0312    0.0000 C   0  0  0  0  0  0  0  0  0  0  0  0
   -0.7144   -0.2062    0.0000 C   0  0  0  0  0  0  0  0  0  0  0  0
  1  2  1  0      
  2  3  1  0      
  3  4  1  0      
  4  5  2  0      
  5  6  1  0      
  6  7  2  0      
  7  8  1  0      
  7  9  1  0      
  9 10  2  0      
  4 10  1  0      
M  END
>  <Bioactivity>
Extracted from Florence oil;Store the product in sealed,cool and dry condition

>  <CAS>
501-94-0

>  <Col>
7

>  <Formula>
C8H10O2

>  <ID>
T2861

>  <Index>
106

>  <MOLENAME>
Tyrosol

>  <MolWt>
138.07

>  <Pathways>
Others

>  <Plate>
PLATE 002

>  <QR code>
1152411595

>  <Receptor>
Others

>  <Reference>
1. Chandramohan R, Pari L, Rathinam A, Sheikh BA. Chem Biol Interact. 2015 Mar 5;229:44-54. 

>  <Row>
C

>  <SMILES>
OCCC1=CC=C(O)C=C1

>  <Target>
Others

>  <Weight>
10.2mg

$$$$
Lab-1.sdf
  ChemDraw05232018482D

 14 14  0  0  0  0  0  0  0  0999 V2000
    0.3572    1.8562    0.0000 C   0  0  0  0  0  0  0  0  0  0  0  0
   -0.3572    1.4438    0.0000 O   0  0  0  0  0  0  0  0  0  0  0  0
   -0.3572    0.6188    0.0000 C   0  0  0  0  0  0  0  0  0  0  0  0
    0.3572    0.2063    0.0000 C   0  0  0  0  0  0  0  0  0  0  0  0
    0.3572   -0.6187    0.0000 C   0  0  0  0  0  0  0  0  0  0  0  0
   -0.3572   -1.0312    0.0000 C   0  0  0  0  0  0  0  0  0  0  0  0
   -1.0717   -0.6187    0.0000 C   0  0  0  0  0  0  0  0  0  0  0  0
   -1.7862   -1.0312    0.0000 O   0  0  0  0  0  0  0  0  0  0  0  0
   -1.7862   -1.8562    0.0000 C   0  0  0  0  0  0  0  0  0  0  0  0
   -1.0717    0.2063    0.0000 C   0  0  0  0  0  0  0  0  0  0  0  0
   -1.7862    0.6188    0.0000 O   0  0  0  0  0  0  0  0  0  0  0  0
    1.0717   -1.0312    0.0000 C   0  0  0  0  0  0  0  0  0  0  0  0
    1.0717   -1.8562    0.0000 O   0  0  0  0  0  0  0  0  0  0  0  0
    1.7862   -0.6187    0.0000 O   0  0  0  0  0  0  0  0  0  0  0  0
  1  2  1  0      
  2  3  1  0      
  3  4  2  0      
  4  5  1  0      
  5  6  2  0      
  6  7  1  0      
  7  8  1  0      
  8  9  1  0      
  7 10  2  0      
  3 10  1  0      
 10 11  1  0      
  5 12  1  0      
 12 13  1  0      
 12 14  2  0      
M  END
>  <Bioactivity>
Extracted from Kalimeris indica(L?) Sch-Bip;Store the product in sealed, cool and dry condition.

>  <CAS>
530-57-4

>  <Col>
8

>  <Formula>
C9H10O5

>  <ID>
T2883

>  <Index>
107

>  <MOLENAME>
Syringic acid

>  <MolWt>
198.18

>  <Pathways>
Others

>  <Plate>
PLATE 002

>  <QR code>
1152411594

>  <Receptor>
Others

>  <Reference>
1. G¨¹ven M, et al. Turk J Med Sci. 2015;45(1):233-40.

>  <Row>
C

>  <SMILES>
COC1=CC(=CC(OC)=C1O)C(O)=O

>  <Target>
Others

>  <Weight>
10.1mg

$$$$
Lab-1.sdf
  ChemDraw05232018482D

  8  7  0  0  0  0  0  0  0  0999 V2000
   -1.7861   -0.2062    0.0000 O   0  0  0  0  0  0  0  0  0  0  0  0
   -1.0717    0.2063    0.0000 C   0  0  0  0  0  0  0  0  0  0  0  0
   -0.3573   -0.2062    0.0000 C   0  0  0  0  0  0  0  0  0  0  0  0
   -0.3573   -1.0312    0.0000 O   0  0  0  0  0  0  0  0  0  0  0  0
    0.3572    0.2063    0.0000 C   0  0  0  0  0  0  0  0  0  0  0  0
    0.3572    1.0312    0.0000 O   0  0  0  0  0  0  0  0  0  0  0  0
    1.0716   -0.2062    0.0000 C   0  0  0  0  0  0  0  0  0  0  0  0
    1.7861    0.2063    0.0000 O   0  0  0  0  0  0  0  0  0  0  0  0
  1  2  1  0      
  2  3  1  0      
  3  4  1  0      
  3  5  1  0      
  5  6  1  0      
  5  7  1  0      
  7  8  1  0      
M  END
>  <Bioactivity>
Erythritol is a sugar alcohol used as low-calorie sweetener.

>  <CAS>
149-32-6

>  <Col>
9

>  <Formula>
C4H10O4

>  <ID>
T0583

>  <Index>
108

>  <MOLENAME>
Erythritol

>  <MolWt>
122.12

>  <Pathways>
Others

>  <Plate>
PLATE 002

>  <QR code>
1152411593

>  <Receptor>
Others

>  <Reference>
1. Munro IC, et al. Food Chem Toxicol, 1998, 36(12), 1139-1174.

>  <Row>
C

>  <SMILES>
OCC(O)C(O)CO

>  <Target>
Others

>  <Weight>
10.3mg

$$$$
Lab-1.sdf
  ChemDraw05232018482D

 23 24  0  0  0  0  0  0  0  0999 V2000
   -2.1434    2.0625    0.0000 O   0  0  0  0  0  0  0  0  0  0  0  0
   -1.4290    1.6500    0.0000 C   0  0  0  0  0  0  0  0  0  0  0  0
   -1.4290    0.8250    0.0000 C   0  0  0  0  0  0  0  0  0  0  0  0
   -0.7145    0.4125    0.0000 O   0  0  0  0  0  0  0  0  0  0  0  0
   -0.7145   -0.4125    0.0000 C   0  0  0  0  0  0  0  0  0  0  0  0
   -0.0000   -0.8250    0.0000 O   0  0  0  0  0  0  0  0  0  0  0  0
    0.7144   -0.4125    0.0000 C   0  0  0  0  0  0  0  0  0  0  0  0
    0.7144    0.4125    0.0000 C   0  0  0  0  0  0  0  0  0  0  0  0
   -0.0000    0.8250    0.0000 O   0  0  0  0  0  0  0  0  0  0  0  0
    1.4289    0.8250    0.0000 C   0  0  0  0  0  0  0  0  0  0  0  0
    1.4289    1.6500    0.0000 O   0  0  0  0  0  0  0  0  0  0  0  0
    2.1434    0.4125    0.0000 C   0  0  0  0  0  0  0  0  0  0  0  0
    2.8579    0.8250    0.0000 O   0  0  0  0  0  0  0  0  0  0  0  0
    2.1434   -0.4125    0.0000 O   0  0  0  0  0  0  0  0  0  0  0  0
    1.4289   -0.8250    0.0000 C   0  0  0  0  0  0  0  0  0  0  0  0
    1.4289   -1.6500    0.0000 C   0  0  0  0  0  0  0  0  0  0  0  0
    0.7144   -2.0625    0.0000 O   0  0  0  0  0  0  0  0  0  0  0  0
   -1.4290   -0.8250    0.0000 C   0  0  0  0  0  0  0  0  0  0  0  0
   -1.4290   -1.6500    0.0000 O   0  0  0  0  0  0  0  0  0  0  0  0
   -2.1434   -0.4125    0.0000 C   0  0  0  0  0  0  0  0  0  0  0  0
   -2.8579   -0.8250    0.0000 O   0  0  0  0  0  0  0  0  0  0  0  0
   -2.1434    0.4125    0.0000 C   0  0  0  0  0  0  0  0  0  0  0  0
   -2.8579    0.8250    0.0000 O   0  0  0  0  0  0  0  0  0  0  0  0
  1  2  1  0      
  2  3  1  0      
  3  4  1  0      
  4  5  1  0      
  5  6  1  0      
  6  7  1  0      
  7  8  1  0      
  8  9  1  0      
  8 10  1  0      
 10 11  1  0      
 10 12  1  0      
 12 13  1  0      
 12 14  1  0      
 14 15  1  0      
  7 15  1  0      
 15 16  1  0      
 16 17  1  0      
  5 18  1  0      
 18 19  1  0      
 18 20  1  0      
 20 21  1  0      
 20 22  1  0      
  3 22  1  0      
 22 23  1  0      
M  END
>  <Bioactivity>
A dextrodisaccharide from malt and starch. It is used as a sweetening agent and fermentable intermediate in brewing.

>  <CAS>
69-79-4

>  <Col>
10

>  <Formula>
C12H22O11

>  <ID>
T0584

>  <Index>
109

>  <MOLENAME>
Maltose

>  <MolWt>
342.3

>  <Pathways>
Others

>  <Plate>
PLATE 002

>  <QR code>
1152411592

>  <Receptor>
Others

>  <Reference>
N/A

>  <Row>
C

>  <SMILES>
OCC1OC(OC2C(O)C(O)C(O)OC2CO)C(O)C(O)C1O

>  <Target>
Others

>  <Weight>
10.1mg

$$$$
Lab-1.sdf
  ChemDraw05232018482D

 23 23  0  0  0  0  0  0  0  0999 V2000
   -2.4750    2.5006    0.0000 O   0  0  0  0  0  0  0  0  0  0  0  0
   -1.6500    2.5006    0.0000 C   0  0  0  0  0  0  0  0  0  0  0  0
   -1.2375    1.7862    0.0000 C   0  0  0  0  0  0  0  0  0  0  0  0
   -1.6500    1.0717    0.0000 O   0  0  0  0  0  0  0  0  0  0  0  0
   -0.4125    1.7862    0.0000 C   0  0  0  0  0  0  0  0  0  0  0  0
   -0.0000    2.5006    0.0000 O   0  0  0  0  0  0  0  0  0  0  0  0
   -0.0000    1.0717    0.0000 C   0  0  0  0  0  0  0  0  0  0  0  0
   -0.4125    0.3572    0.0000 O   0  0  0  0  0  0  0  0  0  0  0  0
   -0.0000   -0.3572    0.0000 C   0  0  0  0  0  0  0  0  0  0  0  0
    0.8250   -0.3572    0.0000 O   0  0  0  0  0  0  0  0  0  0  0  0
    1.2375   -1.0717    0.0000 C   0  0  0  0  0  0  0  0  0  0  0  0
    2.0625   -1.0717    0.0000 C   0  0  0  0  0  0  0  0  0  0  0  0
    2.4750   -0.3572    0.0000 O   0  0  0  0  0  0  0  0  0  0  0  0
    0.8250   -1.7862    0.0000 C   0  0  0  0  0  0  0  0  0  0  0  0
    1.2375   -2.5006    0.0000 O   0  0  0  0  0  0  0  0  0  0  0  0
   -0.0000   -1.7862    0.0000 C   0  0  0  0  0  0  0  0  0  0  0  0
   -0.4125   -2.5006    0.0000 O   0  0  0  0  0  0  0  0  0  0  0  0
   -0.4125   -1.0717    0.0000 C   0  0  0  0  0  0  0  0  0  0  0  0
   -1.2375   -1.0717    0.0000 O   0  0  0  0  0  0  0  0  0  0  0  0
    0.8250    1.0717    0.0000 C   0  0  0  0  0  0  0  0  0  0  0  0
    1.2375    0.3572    0.0000 O   0  0  0  0  0  0  0  0  0  0  0  0
    1.2375    1.7862    0.0000 C   0  0  0  0  0  0  0  0  0  0  0  0
    2.0625    1.7862    0.0000 O   0  0  0  0  0  0  0  0  0  0  0  0
  1  2  1  0      
  2  3  1  0      
  3  4  1  0      
  3  5  1  0      
  5  6  1  0      
  5  7  1  0      
  7  8  1  0      
  8  9  1  0      
  9 10  1  0      
 10 11  1  0      
 11 12  1  0      
 12 13  1  0      
 11 14  1  0      
 14 15  1  0      
 14 16  1  0      
 16 17  1  0      
 16 18  1  0      
  9 18  1  0      
 18 19  1  0      
  7 20  1  0      
 20 21  1  0      
 20 22  1  0      
 22 23  1  0      
M  END
>  <Bioactivity>
Maltitol is a sugar alcohol (a polyol) used as a sugar substitute. It has 75?90% of the sweetness of sucrose (table sugar) and nearly identical properties, except for browning. 

>  <CAS>
585-88-6

>  <Col>
11

>  <Formula>
C12H24O11

>  <ID>
T0585

>  <Index>
110

>  <MOLENAME>
Maltitol

>  <MolWt>
344.31

>  <Pathways>
Others

>  <Plate>
PLATE 002

>  <QR code>
1152411591

>  <Receptor>
Others

>  <Reference>
1. Urushima H, et al. J Med Food. 2015 Oct;18(10):1081-7. 

>  <Row>
C

>  <SMILES>
OCC(O)C(O)C(OC1OC(CO)C(O)C(O)C1O)C(O)CO

>  <Target>
Others

>  <Weight>
10.1mg

$$$$
Lab-1.sdf
  ChemDraw05232018482D

 10 10  0  0  0  0  0  0  0  0999 V2000
    0.3573    1.6500    0.0000 O   0  0  0  0  0  0  0  0  0  0  0  0
    0.3573    0.8250    0.0000 C   0  0  0  0  0  0  0  0  0  0  0  0
    1.0717    0.4125    0.0000 C   0  0  0  0  0  0  0  0  0  0  0  0
    1.0717   -0.4125    0.0000 O   0  0  0  0  0  0  0  0  0  0  0  0
    0.3573   -0.8250    0.0000 C   0  0  0  0  0  0  0  0  0  0  0  0
    0.3573   -1.6500    0.0000 O   0  0  0  0  0  0  0  0  0  0  0  0
   -0.3572   -0.4125    0.0000 C   0  0  0  0  0  0  0  0  0  0  0  0
   -1.0717   -0.8250    0.0000 O   0  0  0  0  0  0  0  0  0  0  0  0
   -0.3572    0.4125    0.0000 C   0  0  0  0  0  0  0  0  0  0  0  0
   -1.0717    0.8250    0.0000 O   0  0  0  0  0  0  0  0  0  0  0  0
  1  2  1  0      
  2  3  1  0      
  3  4  1  0      
  4  5  1  0      
  5  6  1  0      
  5  7  1  0      
  7  8  1  0      
  7  9  1  0      
  2  9  1  0      
  9 10  1  0      
M  END
>  <Bioactivity>
Arabinose is an aldopentose ? a monosaccharide containing five carbon atoms, and including an aldehyde (CHO) functional group.

>  <CAS>
87-72-9

>  <Col>
2

>  <Formula>
C5H10O5

>  <ID>
T0587

>  <Index>
111

>  <MOLENAME>
L(+)-Arabinose

>  <MolWt>
150.13

>  <Pathways>
Others

>  <Plate>
PLATE 002

>  <QR code>
1152411579

>  <Receptor>
Others

>  <Reference>
1. Rodrigues Borges M, Balaban Rde C. J Biotechnol. 2014 Dec 20;192 Pt A:42-9.

>  <Row>
D

>  <SMILES>
OC1COC(O)C(O)C1O

>  <Target>
Others

>  <Weight>
10.3mg

$$$$
Lab-1.sdf
  ChemDraw05232018482D

 10 10  0  0  0  0  0  0  0  0999 V2000
    0.3573    1.6500    0.0000 O   0  0  0  0  0  0  0  0  0  0  0  0
    0.3573    0.8250    0.0000 C   0  0  0  0  0  0  0  0  0  0  0  0
    1.0717    0.4125    0.0000 C   0  0  0  0  0  0  0  0  0  0  0  0
    1.0717   -0.4125    0.0000 O   0  0  0  0  0  0  0  0  0  0  0  0
    0.3573   -0.8250    0.0000 C   0  0  0  0  0  0  0  0  0  0  0  0
    0.3573   -1.6500    0.0000 O   0  0  0  0  0  0  0  0  0  0  0  0
   -0.3572   -0.4125    0.0000 C   0  0  0  0  0  0  0  0  0  0  0  0
   -1.0717   -0.8250    0.0000 O   0  0  0  0  0  0  0  0  0  0  0  0
   -0.3572    0.4125    0.0000 C   0  0  0  0  0  0  0  0  0  0  0  0
   -1.0717    0.8250    0.0000 O   0  0  0  0  0  0  0  0  0  0  0  0
  1  2  1  0      
  2  3  1  0      
  3  4  1  0      
  4  5  1  0      
  5  6  1  0      
  5  7  1  0      
  7  8  1  0      
  7  9  1  0      
  2  9  1  0      
  9 10  1  0      
M  END
>  <Bioactivity>
Arabinose is an aldopentose ? a monosaccharide containing five carbon atoms, and including an aldehyde (CHO) functional group.

>  <CAS>
28697-53-2

>  <Col>
3

>  <Formula>
C5H10O5

>  <ID>
T0588

>  <Index>
112

>  <MOLENAME>
D(-)-Arabinose

>  <MolWt>
150.13

>  <Pathways>
Others

>  <Plate>
PLATE 002

>  <QR code>
1152411580

>  <Receptor>
Others

>  <Reference>
1. Rodrigues Borges M, Balaban Rde C. J Biotechnol. 2014 Dec 20;192 Pt A:42-9.

>  <Row>
D

>  <SMILES>
OC1COC(O)C(O)C1O

>  <Target>
Others

>  <Weight>
10.3mg

$$$$
Lab-1.sdf
  ChemDraw05232018482D

 10  9  0  0  0  0  0  0  0  0999 V2000
   -2.1434    0.2062    0.0000 O   0  0  0  0  0  0  0  0  0  0  0  0
   -1.4289   -0.2062    0.0000 C   0  0  0  0  0  0  0  0  0  0  0  0
   -0.7144    0.2062    0.0000 C   0  0  0  0  0  0  0  0  0  0  0  0
   -0.7144    1.0312    0.0000 O   0  0  0  0  0  0  0  0  0  0  0  0
   -0.0001   -0.2062    0.0000 C   0  0  0  0  0  0  0  0  0  0  0  0
   -0.0001   -1.0312    0.0000 O   0  0  0  0  0  0  0  0  0  0  0  0
    0.7144    0.2062    0.0000 C   0  0  0  0  0  0  0  0  0  0  0  0
    0.7144    1.0312    0.0000 O   0  0  0  0  0  0  0  0  0  0  0  0
    1.4289   -0.2062    0.0000 C   0  0  0  0  0  0  0  0  0  0  0  0
    2.1434    0.2062    0.0000 O   0  0  0  0  0  0  0  0  0  0  0  0
  1  2  1  0      
  2  3  1  0      
  3  4  1  0      
  3  5  1  0      
  5  6  1  0      
  5  7  1  0      
  7  8  1  0      
  7  9  1  0      
  9 10  1  0      
M  END
>  <Bioactivity>
Xylitol is a sugar alcohol used as a sweetener.

>  <CAS>
87-99-0

>  <Col>
4

>  <Formula>
C5H12O5

>  <ID>
T0589

>  <Index>
113

>  <MOLENAME>
Xylitol

>  <MolWt>
152.15

>  <Pathways>
Others

>  <Plate>
PLATE 002

>  <QR code>
1152411581

>  <Receptor>
Others

>  <Reference>
1. Azarpazhooh A, et al. Cochrane Database Syst Rev. 2011 Nov 9;(11):CD007095. 

>  <Row>
D

>  <SMILES>
OCC(O)C(O)C(O)CO

>  <Target>
Others

>  <Weight>
10.2mg

$$$$
Lab-1.sdf
  ChemDraw05232018482D

 13 12  0  0  0  0  0  0  0  0999 V2000
   -0.4372    2.4122    0.0000 Na  0  3  0  0  0  0  0  0  0  0  0  0
    0.9917    0.7623    0.0000 O   0  0  0  0  0  0  0  0  0  0  0  0
    0.2773    0.3498    0.0000 C   0  0  0  0  0  0  0  0  0  0  0  0
   -0.4372    0.7623    0.0000 C   0  0  0  0  0  0  0  0  0  0  0  0
   -0.4372    1.5873    0.0000 O   0  5  0  0  0  0  0  0  0  0  0  0
    0.2773   -0.4752    0.0000 C   0  0  0  0  0  0  0  0  0  0  0  0
    0.9447   -0.9602    0.0000 O   0  0  0  0  0  0  0  0  0  0  0  0
    0.6898   -1.7448    0.0000 C   0  0  0  0  0  0  0  0  0  0  0  0
    1.1747   -2.4122    0.0000 O   0  0  0  0  0  0  0  0  0  0  0  0
   -0.1352   -1.7448    0.0000 C   0  0  0  0  0  0  0  0  0  0  0  0
   -0.6202   -2.4122    0.0000 O   0  0  0  0  0  0  0  0  0  0  0  0
   -0.3901   -0.9602    0.0000 C   0  0  0  0  0  0  0  0  0  0  0  0
   -1.1747   -0.7053    0.0000 O   0  0  0  0  0  0  0  0  0  0  0  0
  2  3  1  0      
  3  4  1  0      
  4  5  1  0      
  3  6  1  0      
  6  7  1  0      
  7  8  1  0      
  8  9  2  0      
  8 10  1  0      
 10 11  1  0      
 10 12  2  0      
  6 12  1  0      
 12 13  1  0      
M  CHG  2   1   1   5  -1
M  END
>  <Bioactivity>
Almost odorless fluffy, white to off-white crystalline powder. Used as an antioxidant and preservative.

>  <CAS>
6381-77-7

>  <Col>
5

>  <Formula>
C6H7NaO6

>  <ID>
T0590

>  <Index>
114

>  <MOLENAME>
Sodium erythorbate

>  <MolWt>
198.11

>  <Pathways>
Immunology/Inflammation

>  <Plate>
PLATE 002

>  <QR code>
1152411582

>  <Receptor>
Antioxidant

>  <Reference>
1. Karpi?ska-Tymoszczyk M. J Food Sci Technol. 2013 Jun;50(3):443-54. 

>  <Row>
D

>  <SMILES>
[Na+].OC(C[O-])C1OC(=O)C(O)=C1O

>  <Target>
ROS inhibitor

>  <Weight>
10.3mg

$$$$
Lab-1.sdf
  ChemDraw05232018482D

 34 39  0  0  0  0  0  0  0  0999 V2000
    1.4195    2.8723    0.0000 C   0  0  0  0  0  0  0  0  0  0  0  0
    1.5206    2.0536    0.0000 C   0  0  0  0  0  0  0  0  0  0  0  0
    2.3299    1.7518    0.0000 C   0  0  0  0  0  0  0  0  0  0  0  0
    2.1486    0.8903    0.0000 C   0  0  0  0  0  0  0  0  0  0  0  0
    2.9727    0.8531    0.0000 O   0  0  0  0  0  0  0  0  0  0  0  0
    2.2473    0.0534    0.0000 O   0  0  0  0  0  0  0  0  0  0  0  0
    1.4704    0.3681    0.0000 C   0  0  0  0  0  0  0  0  0  0  0  0
    1.7018    1.2520    0.0000 O   0  0  0  0  0  0  0  0  0  0  0  0
    0.6275    0.5890    0.0000 C   0  0  0  0  0  0  0  0  0  0  0  0
   -0.0674    0.1442    0.0000 C   0  0  0  0  0  0  0  0  0  0  0  0
   -0.0296   -0.6799    0.0000 O   0  0  0  0  0  0  0  0  0  0  0  0
    0.7030   -1.0593    0.0000 C   0  0  0  0  0  0  0  0  0  0  0  0
    1.3978   -0.6146    0.0000 O   0  0  0  0  0  0  0  0  0  0  0  0
    0.7407   -1.8835    0.0000 C   0  0  0  0  0  0  0  0  0  0  0  0
    1.4733   -2.2628    0.0000 C   0  0  0  0  0  0  0  0  0  0  0  0
    1.5111   -3.0869    0.0000 C   0  0  0  0  0  0  0  0  0  0  0  0
    0.8162   -3.5316    0.0000 C   0  0  0  0  0  0  0  0  0  0  0  0
    0.0836   -3.1522    0.0000 C   0  0  0  0  0  0  0  0  0  0  0  0
    0.0459   -2.3281    0.0000 C   0  0  0  0  0  0  0  0  0  0  0  0
    1.1888    1.0154    0.0000 C   0  0  0  0  0  0  0  0  0  0  0  0
    0.2287    1.0842    0.0000 C   0  0  0  0  0  0  0  0  0  0  0  0
    0.7996    1.5575    0.0000 C   0  0  0  0  0  0  0  0  0  0  0  0
    0.3020    2.2156    0.0000 O   0  0  0  0  0  0  0  0  0  0  0  0
   -0.5167    2.1137    0.0000 C   0  0  0  0  0  0  0  0  0  0  0  0
   -0.8378    1.3537    0.0000 O   0  0  0  0  0  0  0  0  0  0  0  0
   -1.6565    1.2519    0.0000 C   0  0  0  0  0  0  0  0  0  0  0  0
   -1.9776    0.4919    0.0000 C   0  0  0  0  0  0  0  0  0  0  0  0
   -2.7962    0.3900    0.0000 O   0  0  0  0  0  0  0  0  0  0  0  0
   -2.1541    1.9099    0.0000 C   0  0  0  0  0  0  0  0  0  0  0  0
   -2.9727    1.8080    0.0000 O   0  0  0  0  0  0  0  0  0  0  0  0
   -1.8330    2.6698    0.0000 C   0  0  0  0  0  0  0  0  0  0  0  0
   -2.3305    3.3278    0.0000 O   0  0  0  0  0  0  0  0  0  0  0  0
   -1.0143    2.7716    0.0000 C   0  0  0  0  0  0  0  0  0  0  0  0
   -0.6932    3.5316    0.0000 O   0  0  0  0  0  0  0  0  0  0  0  0
  1  2  1  0      
  2  3  1  0      
  3  4  1  0      
  4  5  1  0      
  4  6  1  0      
  6  7  1  0      
  7  8  1  0      
  2  8  1  0      
  7  9  1  0      
  9 10  1  0      
 10 11  1  0      
 11 12  1  0      
 12 13  2  0      
 12 14  1  0      
 14 15  2  0      
 15 16  1  0      
 16 17  2  0      
 17 18  1  0      
 18 19  2  0      
 14 19  1  0      
  9 20  1  0      
  4 20  1  0      
 20 21  1  0      
 21 22  1  0      
  2 22  1  0      
  9 22  1  0      
 22 23  1  0      
 23 24  1  0      
 24 25  1  0      
 25 26  1  0      
 26 27  1  0      
 27 28  1  0      
 26 29  1  0      
 29 30  1  0      
 29 31  1  0      
 31 32  1  0      
 31 33  1  0      
 24 33  1  0      
 33 34  1  0      
M  END
>  <Bioactivity>
Paeoniflorin is a herbal constituent extracted from the root of Paeonia albiflora Pall.

>  <CAS>
23180-57-6

>  <Col>
6

>  <Formula>
C23H28O11

>  <ID>
T2230

>  <Index>
115

>  <MOLENAME>
Paeoniflorin

>  <MolWt>
480.46

>  <Pathways>
Neuroscience

>  <Plate>
PLATE 002

>  <QR code>
1152411583

>  <Receptor>
Prostaglandin G/H synthase

>  <Reference>
1. Cao BY, et al. J Ethnopharmacol, 2010. 131(1): p. 122-9.

>  <Row>
D

>  <SMILES>
CC12CC3(O)OC(O1)C1(COC(=O)C4=CC=CC=C4)C3CC21OC1OC(CO)C(O)C(O)C1O

>  <Target>
COX inhibitor

>  <Weight>
10.3mg

$$$$
Lab-1.sdf
  ChemDraw05232018482D

 23 25  0  0  0  0  0  0  0  0999 V2000
   -2.8875   -1.4289    0.0000 C   0  0  0  0  0  0  0  0  0  0  0  0
   -2.0625   -1.4289    0.0000 O   0  0  0  0  0  0  0  0  0  0  0  0
   -1.6500   -0.7145    0.0000 C   0  0  0  0  0  0  0  0  0  0  0  0
   -2.0625   -0.0000    0.0000 C   0  0  0  0  0  0  0  0  0  0  0  0
   -2.8875   -0.0000    0.0000 O   0  0  0  0  0  0  0  0  0  0  0  0
   -1.6500    0.7145    0.0000 C   0  0  0  0  0  0  0  0  0  0  0  0
   -0.8250    0.7145    0.0000 C   0  0  0  0  0  0  0  0  0  0  0  0
   -0.4125    1.4289    0.0000 C   0  0  0  0  0  0  0  0  0  0  0  0
   -0.8250    2.1434    0.0000 O   0  0  0  0  0  0  0  0  0  0  0  0
    0.4125    1.4289    0.0000 O   0  0  0  0  0  0  0  0  0  0  0  0
    0.8250    0.7145    0.0000 C   0  0  0  0  0  0  0  0  0  0  0  0
    1.6500    0.7145    0.0000 C   0  0  0  0  0  0  0  0  0  0  0  0
    2.0625    1.4289    0.0000 O   0  0  0  0  0  0  0  0  0  0  0  0
    2.0625   -0.0000    0.0000 C   0  0  0  0  0  0  0  0  0  0  0  0
    2.8875   -0.0000    0.0000 O   0  0  0  0  0  0  0  0  0  0  0  0
    1.6500   -0.7145    0.0000 C   0  0  0  0  0  0  0  0  0  0  0  0
    2.0625   -1.4289    0.0000 C   0  0  0  0  0  0  0  0  0  0  0  0
    1.6500   -2.1434    0.0000 O   0  0  0  0  0  0  0  0  0  0  0  0
    0.8250   -0.7145    0.0000 O   0  0  0  0  0  0  0  0  0  0  0  0
    0.4125   -0.0000    0.0000 C   0  0  0  0  0  0  0  0  0  0  0  0
   -0.4125   -0.0000    0.0000 C   0  0  0  0  0  0  0  0  0  0  0  0
   -0.8250   -0.7145    0.0000 C   0  0  0  0  0  0  0  0  0  0  0  0
   -0.4125   -1.4289    0.0000 O   0  0  0  0  0  0  0  0  0  0  0  0
  1  2  1  0      
  2  3  1  0      
  3  4  2  0      
  4  5  1  0      
  4  6  1  0      
  6  7  2  0      
  7  8  1  0      
  8  9  2  0      
  8 10  1  0      
 10 11  1  0      
 11 12  1  0      
 12 13  1  0      
 12 14  1  0      
 14 15  1  0      
 14 16  1  0      
 16 17  1  0      
 17 18  1  0      
 16 19  1  0      
 19 20  1  0      
 11 20  1  0      
 20 21  1  0      
  7 21  1  0      
 21 22  2  0      
  3 22  1  0      
 22 23  1  0      
M  END
>  <Bioactivity>
Bergenin, a polyphenol, is a potent antinarcotic agent with antioxidant action. 

>  <CAS>
477-90-7

>  <Col>
7

>  <Formula>
C14H16O9

>  <ID>
T0122

>  <Index>
116

>  <MOLENAME>
Bengenin

>  <MolWt>
328.27

>  <Pathways>
MAPK Signaling; Immunology/Inflammation

>  <Plate>
PLATE 002

>  <QR code>
1152411584

>  <Receptor>
NO; TNF-¦Á; IL-1¦Â; and IL-6 ; NF-¦ÊB

>  <Reference>
1. Gao XJ, et al. Inflammation. 2015 Jun;38(3):1142-50. 

>  <Row>
D

>  <SMILES>
COC1=C(O)C=C2C(=O)OC3C(O)C(O)C(CO)OC3C2=C1O

>  <Target>
NO agonist; TNF-alpha inhibitor; IL inhibitor; NF-¦ÊB inhibitor

>  <Weight>
10.3mg

$$$$
Lab-1.sdf
  ChemDraw05232018482D

 25 28  0  0  0  0  0  0  0  0999 V2000
   -1.4689   -0.9692    0.0000 C   0  0  0  0  0  0  0  0  0  0  0  0
   -1.1091   -0.2268    0.0000 C   0  0  0  0  0  0  0  0  0  0  0  0
   -0.5772   -0.8575    0.0000 C   0  0  0  0  0  0  0  0  0  0  0  0
    0.2349   -0.7123    0.0000 C   0  0  0  0  0  0  0  0  0  0  0  0
    0.7667   -1.3430    0.0000 O   0  0  0  0  0  0  0  0  0  0  0  0
    0.5152    0.0636    0.0000 C   0  0  0  0  0  0  0  0  0  0  0  0
   -0.0166    0.6943    0.0000 C   0  0  0  0  0  0  0  0  0  0  0  0
    0.2636    1.4703    0.0000 C   0  0  0  0  0  0  0  0  0  0  0  0
    1.0758    1.6155    0.0000 C   0  0  0  0  0  0  0  0  0  0  0  0
    1.6076    0.9848    0.0000 C   0  0  0  0  0  0  0  0  0  0  0  0
    2.4198    1.1300    0.0000 C   0  0  0  0  0  0  0  0  0  0  0  0
    2.9516    0.4993    0.0000 C   0  0  0  0  0  0  0  0  0  0  0  0
    3.7637    0.6445    0.0000 O   0  0  0  0  0  0  0  0  0  0  0  0
    2.6713   -0.2767    0.0000 C   0  0  0  0  0  0  0  0  0  0  0  0
    1.8591   -0.4219    0.0000 C   0  0  0  0  0  0  0  0  0  0  0  0
    1.3273    0.2088    0.0000 C   0  0  0  0  0  0  0  0  0  0  0  0
    1.0470   -0.5671    0.0000 C   0  0  0  0  0  0  0  0  0  0  0  0
   -0.8288    0.5491    0.0000 C   0  0  0  0  0  0  0  0  0  0  0  0
   -1.4801    1.0555    0.0000 C   0  0  0  0  0  0  0  0  0  0  0  0
   -2.1630    0.5925    0.0000 C   0  0  0  0  0  0  0  0  0  0  0  0
   -1.9336   -0.2000    0.0000 C   0  0  0  0  0  0  0  0  0  0  0  0
   -2.4401   -0.8513    0.0000 C   0  0  0  0  0  0  0  0  0  0  0  0
   -2.1291   -1.6155    0.0000 O   0  0  0  0  0  0  0  0  0  0  0  0
   -3.2573   -0.7385    0.0000 C   0  0  0  0  0  0  0  0  0  0  0  0
   -3.7637   -1.3898    0.0000 O   0  0  0  0  0  0  0  0  0  0  0  0
  1  2  1  0      
  2  3  1  0      
  3  4  1  0      
  4  5  1  0      
  4  6  1  0      
  6  7  1  0      
  7  8  1  0      
  8  9  1  0      
  9 10  1  0      
 10 11  2  0      
 11 12  1  0      
 12 13  2  0      
 12 14  1  0      
 14 15  1  0      
 15 16  1  0      
  6 16  1  0      
 10 16  1  0      
 16 17  1  0      
  7 18  1  0      
  2 18  1  0      
 18 19  1  0      
 19 20  1  0      
 20 21  1  0      
  2 21  1  0      
 21 22  1  0      
 22 23  2  0      
 22 24  1  0      
 24 25  1  0      
M  END
>  <Bioactivity>
Corticosterone is a sensitive inhibitor of monoamine transport. 

>  <CAS>
50-22-6

>  <Col>
8

>  <Formula>
C21H30O4

>  <ID>
T0948L

>  <Index>
117

>  <MOLENAME>
Corticosterone

>  <MolWt>
346.46

>  <Pathways>
GPCR/G Protein

>  <Plate>
PLATE 002

>  <QR code>
1152411585

>  <Receptor>
Adrenergic Receptor

>  <Reference>
1. Shyti R, et al. Exp Neurol. 2015 Jan;263:214-20. 

>  <Row>
D

>  <SMILES>
CC12CC(O)C3C(CCC4=CC(=O)CCC34C)C1CCC2C(=O)CO

>  <Target>
Adrenergic Receptor antagonist

>  <Weight>
10.2mg

$$$$
Lab-1.sdf
  ChemDraw05232018482D

 18 16  0  0  0  0  0  0  0  0999 V2000
   -1.4833   -2.2940    0.0000 Na  0  3  0  0  0  0  0  0  0  0  0  0
    0.6951   -3.1302    0.0000 Na  0  3  0  0  0  0  0  0  0  0  0  0
    1.3003    3.1302    0.0000 O   0  0  0  0  0  0  0  0  0  0  0  0
    1.3003    2.3052    0.0000 C   0  0  0  0  0  0  0  0  0  0  0  0
    0.5859    1.8927    0.0000 C   0  0  0  0  0  0  0  0  0  0  0  0
   -0.1286    2.3052    0.0000 O   0  0  0  0  0  0  0  0  0  0  0  0
    0.5859    1.0677    0.0000 C   0  0  0  0  0  0  0  0  0  0  0  0
    1.2533    0.5828    0.0000 O   0  0  0  0  0  0  0  0  0  0  0  0
    0.9984   -0.2018    0.0000 C   0  0  0  0  0  0  0  0  0  0  0  0
    1.4833   -0.8692    0.0000 O   0  0  0  0  0  0  0  0  0  0  0  0
    0.1734   -0.2018    0.0000 C   0  0  0  0  0  0  0  0  0  0  0  0
   -0.3116   -0.8692    0.0000 O   0  0  0  0  0  0  0  0  0  0  0  0
    0.0240   -1.6229    0.0000 P   0  0  0  0  0  0  0  0  0  0  0  0
   -0.7297   -1.9584    0.0000 O   0  5  0  0  0  0  0  0  0  0  0  0
    0.3596   -2.3765    0.0000 O   0  5  0  0  0  0  0  0  0  0  0  0
    0.7777   -1.2873    0.0000 O   0  0  0  0  0  0  0  0  0  0  0  0
   -0.0816    0.5828    0.0000 C   0  0  0  0  0  0  0  0  0  0  0  0
   -0.8661    0.8377    0.0000 O   0  0  0  0  0  0  0  0  0  0  0  0
  3  4  1  0      
  4  5  1  0      
  5  6  1  0      
  5  7  1  0      
  7  8  1  0      
  8  9  1  0      
  9 10  2  0      
  9 11  1  0      
 11 12  1  0      
 12 13  1  0      
 13 14  1  0      
 13 15  1  0      
 13 16  2  0      
 11 17  2  0      
  7 17  1  0      
 17 18  1  0      
M  CHG  4   1   1   2   1  14  -1  15  -1
M  END
>  <Bioactivity>
L-Ascorbicacid, 2-(dihydrogen phosphate), sodium salt (1:3) can be used as antioxidant.

>  <CAS>
66170-10-3

>  <Col>
9

>  <Formula>
C6H6Na3O9P

>  <ID>
T2185

>  <Index>
118

>  <MOLENAME>
Sodium L-ascorbyl-2-phosphate

>  <MolWt>
322.05

>  <Pathways>
Vitamin

>  <Plate>
PLATE 002

>  <QR code>
1152411586

>  <Receptor>
VC

>  <Reference>
1. Ares AM, et al. J Chromatogr A. 2013 Oct 25;1313:78-95.

>  <Row>
D

>  <SMILES>
[Na+].[Na+].OCC(O)C1OC(=O)C(OP([O-])([O-])=O)=C1O

>  <Target>
VC

>  <Weight>
9.8mg

$$$$
Lab-1.sdf
  ChemDraw05232018482D

 17 18  0  0  0  0  0  0  0  0999 V2000
   -0.1329    2.6185    0.0000 N   0  0  0  0  0  0  0  0  0  0  0  0
   -0.1329    1.7935    0.0000 C   0  0  0  0  0  0  0  0  0  0  0  0
    0.5815    1.3810    0.0000 N   0  0  0  0  0  0  0  0  0  0  0  0
    0.5815    0.5560    0.0000 C   0  0  0  0  0  0  0  0  0  0  0  0
    1.2960    0.1435    0.0000 O   0  0  0  0  0  0  0  0  0  0  0  0
   -0.1329    0.1435    0.0000 N   0  0  0  0  0  0  0  0  0  0  0  0
   -0.8474    0.5560    0.0000 C   0  0  0  0  0  0  0  0  0  0  0  0
   -0.8474    1.3810    0.0000 C   0  0  0  0  0  0  0  0  0  0  0  0
   -0.1329   -0.6815    0.0000 C   0  0  0  0  0  0  0  0  0  0  0  0
    0.5345   -1.1664    0.0000 O   0  0  0  0  0  0  0  0  0  0  0  0
    0.2796   -1.9511    0.0000 C   0  0  0  0  0  0  0  0  0  0  0  0
    0.7645   -2.6185    0.0000 C   0  0  0  0  0  0  0  0  0  0  0  0
    1.5850   -2.5323    0.0000 O   0  0  0  0  0  0  0  0  0  0  0  0
   -0.5454   -1.9511    0.0000 C   0  0  0  0  0  0  0  0  0  0  0  0
   -1.0304   -2.6185    0.0000 O   0  0  0  0  0  0  0  0  0  0  0  0
   -0.8004   -1.1664    0.0000 C   0  0  0  0  0  0  0  0  0  0  0  0
   -1.5850   -0.9115    0.0000 O   0  0  0  0  0  0  0  0  0  0  0  0
  1  2  1  0      
  2  3  2  0      
  3  4  1  0      
  4  5  2  0      
  4  6  1  0      
  6  7  1  0      
  7  8  2  0      
  2  8  1  0      
  6  9  1  0      
  9 10  1  0      
 10 11  1  0      
 11 12  1  0      
 12 13  1  0      
 11 14  1  0      
 14 15  1  0      
 14 16  1  0      
  9 16  1  0      
 16 17  1  0      
M  END
>  <Bioactivity>
Cytidine is a nucleoside molecule that is formed when cytosine is attached to a ribose ring, cytidine is a component of RNA.

>  <CAS>
65-46-3

>  <Col>
10

>  <Formula>
C9H13N3O5

>  <ID>
T1591L

>  <Index>
119

>  <MOLENAME>
Cytidine

>  <MolWt>
243.22

>  <Pathways>
DNA Damage/DNA Repair

>  <Plate>
PLATE 002

>  <QR code>
1152411587

>  <Receptor>
Nucleoside Analogue

>  <Reference>
1. Jonas DA, et al. Ann Nutr Metab. 2001; 45(6):235-54.

>  <Row>
D

>  <SMILES>
NC1=NC(=O)N(C=C1)C1OC(CO)C(O)C1O

>  <Target>
Nucleoside Antimetabolite/Analogue

>  <Weight>
10.3mg

$$$$
Lab-1.sdf
  ChemDraw05232018482D

 26 25  0  0  0  0  0  0  0  0999 V2000
   -4.1443    2.7174    0.0000 O   0  0  0  0  0  0  0  0  0  0  0  0
   -1.7872    2.7174    0.0000 O   0  0  0  0  0  0  0  0  0  0  0  0
    0.5700    2.7174    0.0000 O   0  0  0  0  0  0  0  0  0  0  0  0
   -4.1443   -0.5740    0.0000 Br  0  0  0  0  0  0  0  0  0  0  0  0
   -1.7872    0.1405    0.0000 C   0  0  0  0  0  0  0  0  0  0  0  0
   -0.9622    0.1405    0.0000 N   0  0  0  0  0  0  0  0  0  0  0  0
   -0.7304   -0.7864    0.0000 C   0  0  0  0  0  0  0  0  0  0  0  0
    0.0739   -0.6028    0.0000 C   0  0  0  0  0  0  0  0  0  0  0  0
    0.4318    0.1405    0.0000 C   0  0  0  0  0  0  0  0  0  0  0  0
    0.0739    0.8838    0.0000 C   0  0  0  0  0  0  0  0  0  0  0  0
   -0.7304    1.0674    0.0000 C   0  0  0  0  0  0  0  0  0  0  0  0
   -1.3754    0.5530    0.0000 C   0  0  0  0  0  0  0  0  0  0  0  0
   -2.0899    0.1405    0.0000 O   0  0  0  0  0  0  0  0  0  0  0  0
   -1.3754   -0.2720    0.0000 C   0  0  0  0  0  0  0  0  0  0  0  0
    1.2568    0.1405    0.0000 O   0  0  0  0  0  0  0  0  0  0  0  0
    1.6693   -0.5740    0.0000 C   0  0  0  0  0  0  0  0  0  0  0  0
    1.2568   -1.2884    0.0000 O   0  0  0  0  0  0  0  0  0  0  0  0
    2.4943   -0.5740    0.0000 C   0  0  0  0  0  0  0  0  0  0  0  0
    2.9068    0.1405    0.0000 C   0  0  0  0  0  0  0  0  0  0  0  0
    3.7318    0.1405    0.0000 O   0  0  0  0  0  0  0  0  0  0  0  0
    2.9068   -1.2884    0.0000 C   0  0  0  0  0  0  0  0  0  0  0  0
    3.7318   -1.2884    0.0000 C   0  0  0  0  0  0  0  0  0  0  0  0
    4.1443   -2.0029    0.0000 C   0  0  0  0  0  0  0  0  0  0  0  0
    3.7318   -2.7174    0.0000 C   0  0  0  0  0  0  0  0  0  0  0  0
    2.9068   -2.7174    0.0000 C   0  0  0  0  0  0  0  0  0  0  0  0
    2.4943   -2.0029    0.0000 C   0  0  0  0  0  0  0  0  0  0  0  0
  5  6  1  0      
  6  7  1  0      
  7  8  1  0      
  8  9  1  0      
  9 10  1  0      
 10 11  1  0      
  6 11  1  0      
 11 12  1  0      
 12 13  1  0      
 13 14  1  0      
  7 14  1  0      
 12 14  1  0      
  9 15  1  0      
 15 16  1  0      
 16 17  2  0      
 16 18  1  0      
 18 19  1  0      
 19 20  1  0      
 18 21  1  0      
 21 22  2  0      
 22 23  1  0      
 23 24  2  0      
 24 25  1  0      
 25 26  2  0      
 21 26  1  0      
M  END
>  <Bioactivity>
An alkaloid from SOLANACEAE, especially DATURA and SCOPOLIA. Scopolamine and its quaternary derivatives act as antimuscarinics like ATROPINE, but may have more central nervous system effects. Among th
e many uses are as an anesthetic premedication, in URINARY INCONTINENCE, in MOTION SICKNESS, as an antispasmodic, and as a mydriatic and cycloplegic. 

>  <CAS>
6533-68-2

>  <Col>
11

>  <Formula>
C17H28BrNO7

>  <ID>
T2182

>  <Index>
120

>  <MOLENAME>
Scopolamine HBr trihydrate

>  <MolWt>
438.31

>  <Pathways>
Neuroscience

>  <Plate>
PLATE 002

>  <QR code>
1152411588

>  <Receptor>
Muscarinic AChR

>  <Reference>
1. Murasaki O, et al. J Pharmacol Exp Ther. 2003 Dec;307(3):995-1000. 

>  <Row>
D

>  <SMILES>
O.O.O.Br.CN1C2CC(CC1C1OC21)OC(=O)C(CO)C1=CC=CC=C1

>  <Target>
AChR antagonist

>  <Weight>
10.3mg

$$$$
Lab-1.sdf
  ChemDraw05232018482D

 21 24  0  0  0  0  0  0  0  0999 V2000
   -2.1307   -1.2924    0.0000 C   0  0  0  0  0  0  0  0  0  0  0  0
   -1.7709   -0.5500    0.0000 C   0  0  0  0  0  0  0  0  0  0  0  0
   -1.2390   -1.1807    0.0000 C   0  0  0  0  0  0  0  0  0  0  0  0
   -0.4269   -1.0355    0.0000 C   0  0  0  0  0  0  0  0  0  0  0  0
   -0.1466   -0.2596    0.0000 C   0  0  0  0  0  0  0  0  0  0  0  0
   -0.6784    0.3712    0.0000 C   0  0  0  0  0  0  0  0  0  0  0  0
   -0.3982    1.1472    0.0000 C   0  0  0  0  0  0  0  0  0  0  0  0
    0.4140    1.2924    0.0000 C   0  0  0  0  0  0  0  0  0  0  0  0
    0.9458    0.6617    0.0000 C   0  0  0  0  0  0  0  0  0  0  0  0
    1.7579    0.8069    0.0000 C   0  0  0  0  0  0  0  0  0  0  0  0
    2.2898    0.1762    0.0000 C   0  0  0  0  0  0  0  0  0  0  0  0
    3.1019    0.3214    0.0000 O   0  0  0  0  0  0  0  0  0  0  0  0
    2.0094   -0.5999    0.0000 C   0  0  0  0  0  0  0  0  0  0  0  0
    1.1973   -0.7451    0.0000 C   0  0  0  0  0  0  0  0  0  0  0  0
    0.6655   -0.1144    0.0000 C   0  0  0  0  0  0  0  0  0  0  0  0
    0.3852   -0.8903    0.0000 C   0  0  0  0  0  0  0  0  0  0  0  0
   -1.4906    0.2260    0.0000 C   0  0  0  0  0  0  0  0  0  0  0  0
   -2.1420    0.7324    0.0000 C   0  0  0  0  0  0  0  0  0  0  0  0
   -2.8248    0.2694    0.0000 C   0  0  0  0  0  0  0  0  0  0  0  0
   -2.5955   -0.5232    0.0000 C   0  0  0  0  0  0  0  0  0  0  0  0
   -3.1019   -1.1745    0.0000 O   0  0  0  0  0  0  0  0  0  0  0  0
  1  2  1  0      
  2  3  1  0      
  3  4  1  0      
  4  5  1  0      
  5  6  1  0      
  6  7  1  0      
  7  8  1  0      
  8  9  2  0      
  9 10  1  0      
 10 11  1  0      
 11 12  1  0      
 11 13  1  0      
 13 14  1  0      
 14 15  1  0      
  5 15  1  0      
  9 15  1  0      
 15 16  1  0      
  6 17  1  0      
  2 17  1  0      
 17 18  1  0      
 18 19  1  0      
 19 20  1  0      
  2 20  1  0      
 20 21  2  0      
M  END
>  <Bioactivity>
DHEA (Dehydroisoandrosterone) is an important endogenous steroid hormone; DHEA also has a variety of potential biological effects in its own right, binding to an array of nuclear and cell surface rece
ptors and acting as a neurosteroid.

>  <CAS>
53-43-0

>  <Col>
2

>  <Formula>
C19H28O2

>  <ID>
T0856L

>  <Index>
121

>  <MOLENAME>
Dehydroepiandrosterone

>  <MolWt>
288.42

>  <Pathways>
Endocrinology/ Hormones; Neuroscience;Metabolism

>  <Plate>
PLATE 002

>  <QR code>
1152411576

>  <Receptor>
GABA-A receptor; Androgen receptor ; NMDAR; NR; PPAR alpha; Bile salt sulfotransferase

>  <Reference>
1. Chen F, et al. Endocrinology. 2005 Nov; 146(11):4568-76.

>  <Row>
E

>  <SMILES>
CC12CCC3C(CC=C4CC(O)CCC34C)C1CCC2=O

>  <Target>
GABAR agonist; Androgen receptor agonist; GluR; PPAR activator

>  <Weight>
10mg

$$$$
Lab-1.sdf
  ChemDraw05232018482D

 14 14  0  0  0  0  0  0  0  0999 V2000
    1.7861    1.8562    0.0000 C   0  0  0  0  0  0  0  0  0  0  0  0
    1.0717    1.4438    0.0000 O   0  0  0  0  0  0  0  0  0  0  0  0
    1.0717    0.6188    0.0000 C   0  0  0  0  0  0  0  0  0  0  0  0
    1.7861    0.2063    0.0000 C   0  0  0  0  0  0  0  0  0  0  0  0
    2.5006    0.6188    0.0000 O   0  0  0  0  0  0  0  0  0  0  0  0
    1.7861   -0.6187    0.0000 C   0  0  0  0  0  0  0  0  0  0  0  0
    1.0717   -1.0312    0.0000 C   0  0  0  0  0  0  0  0  0  0  0  0
    0.3572   -0.6187    0.0000 C   0  0  0  0  0  0  0  0  0  0  0  0
   -0.3573   -1.0312    0.0000 C   0  0  0  0  0  0  0  0  0  0  0  0
   -1.0717   -0.6187    0.0000 C   0  0  0  0  0  0  0  0  0  0  0  0
   -1.7861   -1.0312    0.0000 C   0  0  0  0  0  0  0  0  0  0  0  0
   -1.7861   -1.8562    0.0000 O   0  0  0  0  0  0  0  0  0  0  0  0
   -2.5006   -0.6187    0.0000 O   0  0  0  0  0  0  0  0  0  0  0  0
    0.3572    0.2063    0.0000 C   0  0  0  0  0  0  0  0  0  0  0  0
  1  2  1  0      
  2  3  1  0      
  3  4  2  0      
  4  5  1  0      
  4  6  1  0      
  6  7  2  0      
  7  8  1  0      
  9  8  1  4      
  9 10  2  0      
 10 11  1  0      
 11 12  1  0      
 11 13  2  0      
  8 14  2  0      
  3 14  1  0      
M  END
>  <Bioactivity>
Ferulic Acid is a hydroxycinnamic acid and a type of organic compound found in the Ferula assafoetida L. or Ligusticum chuanxiong.

>  <CAS>
1135-24-6

>  <Col>
3

>  <Formula>
C10H10O4

>  <ID>
T2215

>  <Index>
122

>  <MOLENAME>
Ferulic Acid

>  <MolWt>
194.19

>  <Pathways>
Angiogenesis

>  <Plate>
PLATE 002

>  <QR code>
1152411575

>  <Receptor>
FGFR1

>  <Reference>
1. Yang GW, et al. Int J Mol Sci. 2015 Oct 12;16(10):24011-31.

>  <Row>
E

>  <SMILES>
COC1=C(O)C=CC(C=CC(O)=O)=C1

>  <Target>
FGFR inhibitor

>  <Weight>
10.3mg

$$$$
Lab-1.sdf
  ChemDraw05232018482D

 18 17  0  0  0  0  0  0  0  0999 V2000
   -5.7156    0.6187    0.0000 C   0  0  0  0  0  0  0  0  0  0  0  0
   -5.0012    0.2062    0.0000 C   0  0  0  0  0  0  0  0  0  0  0  0
   -4.2867    0.6187    0.0000 C   0  0  0  0  0  0  0  0  0  0  0  0
   -3.5723    0.2062    0.0000 C   0  0  0  0  0  0  0  0  0  0  0  0
   -2.8578    0.6187    0.0000 C   0  0  0  0  0  0  0  0  0  0  0  0
   -2.1433    0.2062    0.0000 C   0  0  0  0  0  0  0  0  0  0  0  0
   -1.4289    0.6187    0.0000 C   0  0  0  0  0  0  0  0  0  0  0  0
   -0.7145    0.2062    0.0000 C   0  0  0  0  0  0  0  0  0  0  0  0
   -0.0000    0.6187    0.0000 C   0  0  0  0  0  0  0  0  0  0  0  0
    0.7145    0.2062    0.0000 C   0  0  0  0  0  0  0  0  0  0  0  0
    1.4289    0.6187    0.0000 C   0  0  0  0  0  0  0  0  0  0  0  0
    2.1433    0.2062    0.0000 C   0  0  0  0  0  0  0  0  0  0  0  0
    2.8578    0.6187    0.0000 C   0  0  0  0  0  0  0  0  0  0  0  0
    3.5723    0.2062    0.0000 C   0  0  0  0  0  0  0  0  0  0  0  0
    4.2867    0.6187    0.0000 C   0  0  0  0  0  0  0  0  0  0  0  0
    5.0012    0.2062    0.0000 C   0  0  0  0  0  0  0  0  0  0  0  0
    5.7156    0.6187    0.0000 O   0  0  0  0  0  0  0  0  0  0  0  0
    5.0012   -0.6187    0.0000 O   0  0  0  0  0  0  0  0  0  0  0  0
  1  2  1  0      
  2  3  1  0      
  3  4  1  0      
  4  5  1  0      
  5  6  1  0      
  6  7  1  0      
  7  8  1  0      
  8  9  1  0      
  9 10  1  0      
 10 11  1  0      
 11 12  1  0      
 12 13  1  0      
 13 14  1  0      
 14 15  1  0      
 15 16  1  0      
 16 17  1  0      
 16 18  2  0      
M  END
>  <Bioactivity>
Extracted from Palm tree fruit;Store the product in sealed, cool and dry condition.

>  <CAS>
57-10-3

>  <Col>
4

>  <Formula>
C16H32O2

>  <ID>
T2908

>  <Index>
123

>  <MOLENAME>
Palmitic acid

>  <MolWt>
256.42

>  <Pathways>
Others

>  <Plate>
PLATE 002

>  <QR code>
1152411574

>  <Receptor>
Others

>  <Reference>
1. Nagata Y, et al. Leuk Res. 2015 Jun;39(6):638-45. 

>  <Row>
E

>  <SMILES>
CCCCCCCCCCCCCCCC(O)=O

>  <Target>
Others

>  <Weight>
10.2mg

$$$$
Lab-1.sdf
  ChemDraw05232018482D

  8  7  0  0  0  0  0  0  0  0999 V2000
   -1.7861   -0.2062    0.0000 O   0  0  0  0  0  0  0  0  0  0  0  0
   -1.0717    0.2063    0.0000 C   0  0  0  0  0  0  0  0  0  0  0  0
   -1.0717    1.0312    0.0000 O   0  0  0  0  0  0  0  0  0  0  0  0
   -0.3573   -0.2062    0.0000 C   0  0  0  0  0  0  0  0  0  0  0  0
    0.3572    0.2063    0.0000 C   0  0  0  0  0  0  0  0  0  0  0  0
    1.0716   -0.2062    0.0000 C   0  0  0  0  0  0  0  0  0  0  0  0
    1.7861    0.2063    0.0000 O   0  0  0  0  0  0  0  0  0  0  0  0
    1.0716   -1.0312    0.0000 O   0  0  0  0  0  0  0  0  0  0  0  0
  1  2  1  0      
  2  3  2  0      
  2  4  1  0      
  4  5  1  0      
  5  6  1  0      
  6  7  1  0      
  6  8  2  0      
M  END
>  <Bioactivity>
Extracted from Amber;Suitability:Water;Store the product in sealed,cool and dry condition

>  <CAS>
110-15-6

>  <Col>
5

>  <Formula>
C4H6O4

>  <ID>
T2719

>  <Index>
124

>  <MOLENAME>
Succinic acid

>  <MolWt>
118.09

>  <Pathways>
Others

>  <Plate>
PLATE 002

>  <QR code>
1152411573

>  <Receptor>
Others

>  <Reference>
1. Sanjeeva Gandhi M, Mok YS. Chemosphere. 2014 Dec;117:440-6.

>  <Row>
E

>  <SMILES>
OC(=O)CCC(O)=O

>  <Target>
Others

>  <Weight>
10.2mg

$$$$
Lab-1.sdf
  ChemDraw05232018482D

 12 12  0  0  0  0  0  0  0  0999 V2000
   -0.7144    1.8562    0.0000 O   0  0  0  0  0  0  0  0  0  0  0  0
    0.0000    1.4437    0.0000 C   0  0  0  0  0  0  0  0  0  0  0  0
    0.0000    0.6187    0.0000 C   0  0  0  0  0  0  0  0  0  0  0  0
    0.7144    0.2062    0.0000 O   0  0  0  0  0  0  0  0  0  0  0  0
    0.7144   -0.6187    0.0000 C   0  0  0  0  0  0  0  0  0  0  0  0
    1.4289   -1.0312    0.0000 O   0  0  0  0  0  0  0  0  0  0  0  0
    0.0000   -1.0312    0.0000 C   0  0  0  0  0  0  0  0  0  0  0  0
    0.0000   -1.8562    0.0000 O   0  0  0  0  0  0  0  0  0  0  0  0
   -0.7144   -0.6187    0.0000 C   0  0  0  0  0  0  0  0  0  0  0  0
   -1.4289   -1.0312    0.0000 O   0  0  0  0  0  0  0  0  0  0  0  0
   -0.7144    0.2062    0.0000 C   0  0  0  0  0  0  0  0  0  0  0  0
   -1.4289    0.6187    0.0000 O   0  0  0  0  0  0  0  0  0  0  0  0
  1  2  1  0      
  2  3  1  0      
  3  4  1  0      
  4  5  1  0      
  5  6  1  0      
  5  7  1  0      
  7  8  1  0      
  7  9  1  0      
  9 10  1  0      
  9 11  1  0      
  3 11  1  0      
 11 12  1  0      
M  END
>  <Bioactivity>
A kind of galactose.

>  <CAS>
59-23-4

>  <Col>
6

>  <Formula>
C6H12O6

>  <ID>
T0591

>  <Index>
125

>  <MOLENAME>
Alpha-D-galactose

>  <MolWt>
180.16

>  <Pathways>
Others

>  <Plate>
PLATE 002

>  <QR code>
1152411572

>  <Receptor>
Others

>  <Reference>
1. Jiaojiao J, et al. Food Chem. 2015 May 15;175:485-93. 

>  <Row>
E

>  <SMILES>
OCC1OC(O)C(O)C(O)C1O

>  <Target>
Others

>  <Weight>
10.1mg

$$$$
Lab-1.sdf
  ChemDraw05232018482D

 12 12  0  0  0  0  0  0  0  0999 V2000
   -0.7144    1.8562    0.0000 O   0  0  0  0  0  0  0  0  0  0  0  0
    0.0000    1.4437    0.0000 C   0  0  0  0  0  0  0  0  0  0  0  0
    0.0000    0.6187    0.0000 C   0  0  0  0  0  0  0  0  0  0  0  0
    0.7144    0.2062    0.0000 O   0  0  0  0  0  0  0  0  0  0  0  0
    0.7144   -0.6187    0.0000 C   0  0  0  0  0  0  0  0  0  0  0  0
    1.4289   -1.0312    0.0000 O   0  0  0  0  0  0  0  0  0  0  0  0
    0.0000   -1.0312    0.0000 C   0  0  0  0  0  0  0  0  0  0  0  0
    0.0000   -1.8562    0.0000 O   0  0  0  0  0  0  0  0  0  0  0  0
   -0.7144   -0.6187    0.0000 C   0  0  0  0  0  0  0  0  0  0  0  0
   -1.4289   -1.0312    0.0000 O   0  0  0  0  0  0  0  0  0  0  0  0
   -0.7144    0.2062    0.0000 C   0  0  0  0  0  0  0  0  0  0  0  0
   -1.4289    0.6187    0.0000 O   0  0  0  0  0  0  0  0  0  0  0  0
  1  2  1  0      
  2  3  1  0      
  3  4  1  0      
  4  5  1  0      
  5  6  1  0      
  5  7  1  0      
  7  8  1  0      
  7  9  1  0      
  9 10  1  0      
  9 11  1  0      
  3 11  1  0      
 11 12  1  0      
M  END
>  <Bioactivity>
D-Mannose is a hexose or fermentable monosaccharide and isomer of glucose from manna, the ash Fraxinus ornus and related plants.

>  <CAS>
530-26-7

>  <Col>
7

>  <Formula>
C6H12O6

>  <ID>
T0592

>  <Index>
126

>  <MOLENAME>
Mannose

>  <MolWt>
180.17

>  <Pathways>
Others

>  <Plate>
PLATE 002

>  <QR code>
1152411571

>  <Receptor>
Others

>  <Reference>
1. Dengler EC, et al.J Neuroinflammation. 2014 May 21;11:92.

>  <Row>
E

>  <SMILES>
OCC1OC(O)C(O)C(O)C1O

>  <Target>
Others

>  <Weight>
10.2mg

$$$$
Lab-1.sdf
  ChemDraw05232018482D

 12 12  0  0  0  0  0  0  0  0999 V2000
   -1.0717    2.0625    0.0000 C   0  0  0  0  0  0  0  0  0  0  0  0
   -0.3572    1.6500    0.0000 O   0  0  0  0  0  0  0  0  0  0  0  0
   -0.3572    0.8250    0.0000 C   0  0  0  0  0  0  0  0  0  0  0  0
    0.3572    0.4125    0.0000 C   0  0  0  0  0  0  0  0  0  0  0  0
    0.3572   -0.4125    0.0000 C   0  0  0  0  0  0  0  0  0  0  0  0
    1.0717   -0.8250    0.0000 O   0  0  0  0  0  0  0  0  0  0  0  0
   -0.3572   -0.8250    0.0000 C   0  0  0  0  0  0  0  0  0  0  0  0
   -1.0717   -0.4125    0.0000 C   0  0  0  0  0  0  0  0  0  0  0  0
   -1.0717    0.4125    0.0000 C   0  0  0  0  0  0  0  0  0  0  0  0
   -0.3572   -1.6500    0.0000 C   0  0  0  0  0  0  0  0  0  0  0  0
    0.3572   -2.0625    0.0000 C   0  0  0  0  0  0  0  0  0  0  0  0
   -1.0717   -2.0625    0.0000 O   0  0  0  0  0  0  0  0  0  0  0  0
  1  2  1  0      
  2  3  1  0      
  3  4  2  0      
  4  5  1  0      
  5  6  1  0      
  5  7  2  0      
  7  8  1  0      
  8  9  2  0      
  3  9  1  0      
  7 10  1  0      
 10 11  1  0      
 10 12  2  0      
M  END
>  <Bioactivity>
Paeonol (Peonol), a phenolic compound extracted from Chinese herbs Paeonia suffruticosa (moutan cortex) and Cynanchum paniculatum, inhibits MAO with an IC50 of about 50 ¦ÌM.

>  <CAS>
552-41-0

>  <Col>
8

>  <Formula>
C9H10O3

>  <ID>
T2900

>  <Index>
127

>  <MOLENAME>
Paeonol

>  <MolWt>
166.17

>  <Pathways>
Metabolism

>  <Plate>
PLATE 002

>  <QR code>
1152411570

>  <Receptor>
MAO-A; MAO-B

>  <Reference>
1. Kong LD, et al. J Ethnopharmacol, 2004, 91(2-3), 351-355.

>  <Row>
E

>  <SMILES>
COC1=CC(O)=C(C=C1)C(C)=O

>  <Target>
MAO inhibitor

>  <Weight>
10.3mg

$$$$
Lab-1.sdf
  ChemDraw05232018482D

 12 11  0  0  0  0  0  0  0  0999 V2000
   -2.3718   -0.0750    0.0000 O   0  0  0  0  0  0  0  0  0  0  0  0
    0.9429    1.6500    0.0000 C   0  0  0  0  0  0  0  0  0  0  0  0
    0.9429    0.8250    0.0000 C   0  0  0  0  0  0  0  0  0  0  0  0
    1.6573    0.4125    0.0000 O   0  0  0  0  0  0  0  0  0  0  0  0
    1.6573   -0.4125    0.0000 C   0  0  0  0  0  0  0  0  0  0  0  0
    2.3718   -0.8250    0.0000 O   0  0  0  0  0  0  0  0  0  0  0  0
    0.9429   -0.8250    0.0000 C   0  0  0  0  0  0  0  0  0  0  0  0
    0.9429   -1.6500    0.0000 O   0  0  0  0  0  0  0  0  0  0  0  0
    0.2284   -0.4125    0.0000 C   0  0  0  0  0  0  0  0  0  0  0  0
   -0.4861   -0.8250    0.0000 O   0  0  0  0  0  0  0  0  0  0  0  0
    0.2284    0.4125    0.0000 C   0  0  0  0  0  0  0  0  0  0  0  0
   -0.4861    0.8250    0.0000 O   0  0  0  0  0  0  0  0  0  0  0  0
  2  3  1  0      
  3  4  1  0      
  4  5  1  0      
  5  6  1  0      
  5  7  1  0      
  7  8  1  0      
  7  9  1  0      
  9 10  1  0      
  9 11  1  0      
  3 11  1  0      
 11 12  1  0      
M  END
>  <Bioactivity>
Rhamnose (Rham) is a naturally occurring deoxy sugar. It can be classified as either a methyl-pentose or a 6-deoxy-hexose. Rhamnose occurs in nature in its L-form as L-rhamnose (6-deoxy-L-mannose).

>  <CAS>
6155-35-7

>  <Col>
9

>  <Formula>
C6H14O6

>  <ID>
T2928

>  <Index>
128

>  <MOLENAME>
L-Rhamnose monohydrate

>  <MolWt>
182.17

>  <Pathways>
Others

>  <Plate>
PLATE 002

>  <QR code>
1152411569

>  <Receptor>
Others

>  <Reference>
1. Pardo E, Orejas M. Microb Cell Fact. 2014 Nov 22;13:161.

>  <Row>
E

>  <SMILES>
O.CC1OC(O)C(O)C(O)C1O

>  <Target>
Others

>  <Weight>
10.1mg

$$$$
Lab-1.sdf
  ChemDraw05232018482D

 19 21  0  0  0  0  0  0  0  0999 V2000
   -3.2151    1.4437    0.0000 O   0  0  0  0  0  0  0  0  0  0  0  0
   -2.5006    1.0312    0.0000 C   0  0  0  0  0  0  0  0  0  0  0  0
   -1.7861    1.4437    0.0000 C   0  0  0  0  0  0  0  0  0  0  0  0
   -1.0716    1.0312    0.0000 C   0  0  0  0  0  0  0  0  0  0  0  0
   -1.0716    0.2062    0.0000 C   0  0  0  0  0  0  0  0  0  0  0  0
   -1.7861   -0.2062    0.0000 C   0  0  0  0  0  0  0  0  0  0  0  0
   -2.5006    0.2062    0.0000 C   0  0  0  0  0  0  0  0  0  0  0  0
   -0.3572   -0.2062    0.0000 C   0  0  0  0  0  0  0  0  0  0  0  0
   -0.3572   -1.0312    0.0000 C   0  0  0  0  0  0  0  0  0  0  0  0
    0.3572   -1.4437    0.0000 O   0  0  0  0  0  0  0  0  0  0  0  0
    1.0717   -1.0312    0.0000 C   0  0  0  0  0  0  0  0  0  0  0  0
    1.0717   -0.2062    0.0000 C   0  0  0  0  0  0  0  0  0  0  0  0
    1.7861    0.2062    0.0000 C   0  0  0  0  0  0  0  0  0  0  0  0
    2.5006   -0.2062    0.0000 C   0  0  0  0  0  0  0  0  0  0  0  0
    2.5006   -1.0312    0.0000 C   0  0  0  0  0  0  0  0  0  0  0  0
    3.2151   -1.4437    0.0000 O   0  0  0  0  0  0  0  0  0  0  0  0
    1.7861   -1.4437    0.0000 C   0  0  0  0  0  0  0  0  0  0  0  0
    0.3572    0.2062    0.0000 C   0  0  0  0  0  0  0  0  0  0  0  0
    0.3572    1.0312    0.0000 O   0  0  0  0  0  0  0  0  0  0  0  0
  1  2  1  0      
  2  3  2  0      
  3  4  1  0      
  4  5  2  0      
  5  6  1  0      
  6  7  2  0      
  2  7  1  0      
  5  8  1  0      
  8  9  2  0      
  9 10  1  0      
 10 11  1  0      
 11 12  2  0      
 12 13  1  0      
 13 14  2  0      
 14 15  1  0      
 15 16  1  0      
 15 17  2  0      
 11 17  1  0      
 12 18  1  0      
  8 18  1  0      
 18 19  2  0      
M  END
>  <Bioactivity>
Daidzein is a natural isoflavone phytoestrogen found in Leguminosae, used as a component of foods and dietary supplements.

>  <CAS>
486-66-8

>  <Col>
10

>  <Formula>
C15H10O4

>  <ID>
T1238

>  <Index>
129

>  <MOLENAME>
Daidzein

>  <MolWt>
254.24

>  <Pathways>
Endocrinology/ Hormones

>  <Plate>
PLATE 002

>  <QR code>
1152411568

>  <Receptor>
Phytoestrogen

>  <Reference>
1. Feng G, et al. Int Immunopharmacol. 2015 Apr 15;26(2):392-400. 

>  <Row>
E

>  <SMILES>
OC1=CC=C(C=C1)C1=COC2=C(C=CC(O)=C2)C1=O

>  <Target>
Phytoestrogen

>  <Weight>
10.2mg

$$$$
Lab-1.sdf
  ChemDraw05232018482D

 41 45  0  0  0  0  0  0  0  0999 V2000
   -0.3573   -0.6188    0.0000 C   0  0  0  0  0  0  0  0  0  0  0  0
   -1.0716   -1.0312    0.0000 C   0  0  0  0  0  0  0  0  0  0  0  0
   -1.7861   -0.6188    0.0000 O   0  0  0  0  0  0  0  0  0  0  0  0
   -2.5006   -1.0312    0.0000 C   0  0  0  0  0  0  0  0  0  0  0  0
   -3.2150   -0.6188    0.0000 O   0  0  0  0  0  0  0  0  0  0  0  0
   -3.2150    0.2062    0.0000 C   0  0  0  0  0  0  0  0  0  0  0  0
   -3.9295    0.6188    0.0000 C   0  0  0  0  0  0  0  0  0  0  0  0
   -4.6440    0.2062    0.0000 O   0  0  0  0  0  0  0  0  0  0  0  0
   -3.9295    1.4438    0.0000 C   0  0  0  0  0  0  0  0  0  0  0  0
   -4.6440    1.8562    0.0000 O   0  0  0  0  0  0  0  0  0  0  0  0
   -3.2150    1.8562    0.0000 C   0  0  0  0  0  0  0  0  0  0  0  0
   -3.2150    2.6812    0.0000 C   0  0  0  0  0  0  0  0  0  0  0  0
   -2.5006    3.0937    0.0000 O   0  0  0  0  0  0  0  0  0  0  0  0
   -2.5006    1.4438    0.0000 O   0  0  0  0  0  0  0  0  0  0  0  0
   -2.5006    0.6188    0.0000 C   0  0  0  0  0  0  0  0  0  0  0  0
   -1.7861    0.2062    0.0000 O   0  0  0  0  0  0  0  0  0  0  0  0
   -1.0716    0.6188    0.0000 C   0  0  0  0  0  0  0  0  0  0  0  0
   -1.0716    1.4438    0.0000 C   0  0  0  0  0  0  0  0  0  0  0  0
   -0.3573    1.8562    0.0000 C   0  0  0  0  0  0  0  0  0  0  0  0
   -0.3573    2.6812    0.0000 O   0  0  0  0  0  0  0  0  0  0  0  0
    0.3573    1.4438    0.0000 C   0  0  0  0  0  0  0  0  0  0  0  0
    1.0717    1.8562    0.0000 C   0  0  0  0  0  0  0  0  0  0  0  0
    1.0717    2.6812    0.0000 O   0  0  0  0  0  0  0  0  0  0  0  0
    1.7862    1.4438    0.0000 C   0  0  0  0  0  0  0  0  0  0  0  0
    1.7862    0.6188    0.0000 C   0  0  0  0  0  0  0  0  0  0  0  0
    1.0717    0.2062    0.0000 O   0  0  0  0  0  0  0  0  0  0  0  0
    0.3573    0.6188    0.0000 C   0  0  0  0  0  0  0  0  0  0  0  0
   -0.3573    0.2062    0.0000 C   0  0  0  0  0  0  0  0  0  0  0  0
    2.5006    0.2062    0.0000 C   0  0  0  0  0  0  0  0  0  0  0  0
    3.2151    0.6188    0.0000 C   0  0  0  0  0  0  0  0  0  0  0  0
    3.9296    0.2062    0.0000 C   0  0  0  0  0  0  0  0  0  0  0  0
    3.9296   -0.6188    0.0000 C   0  0  0  0  0  0  0  0  0  0  0  0
    4.6440   -1.0312    0.0000 O   0  0  0  0  0  0  0  0  0  0  0  0
    3.2151   -1.0312    0.0000 C   0  0  0  0  0  0  0  0  0  0  0  0
    2.5006   -0.6188    0.0000 C   0  0  0  0  0  0  0  0  0  0  0  0
   -2.5006   -1.8562    0.0000 C   0  0  0  0  0  0  0  0  0  0  0  0
   -3.2150   -2.2687    0.0000 O   0  0  0  0  0  0  0  0  0  0  0  0
   -1.7861   -2.2687    0.0000 C   0  0  0  0  0  0  0  0  0  0  0  0
   -1.7861   -3.0937    0.0000 O   0  0  0  0  0  0  0  0  0  0  0  0
   -1.0716   -1.8562    0.0000 C   0  0  0  0  0  0  0  0  0  0  0  0
   -0.3573   -2.2687    0.0000 O   0  0  0  0  0  0  0  0  0  0  0  0
  1  2  1  0      
  2  3  1  0      
  3  4  1  0      
  4  5  1  0      
  5  6  1  0      
  6  7  1  0      
  7  8  1  0      
  7  9  1  0      
  9 10  1  0      
  9 11  1  0      
 11 12  1  0      
 12 13  1  0      
 11 14  1  0      
 14 15  1  0      
  6 15  1  0      
 15 16  1  0      
 16 17  1  0      
 17 18  2  0      
 18 19  1  0      
 19 20  1  0      
 19 21  2  0      
 21 22  1  0      
 22 23  2  0      
 22 24  1  0      
 24 25  1  0      
 25 26  1  0      
 26 27  1  0      
 21 27  1  0      
 27 28  2  0      
 17 28  1  0      
 25 29  1  0      
 29 30  2  0      
 30 31  1  0      
 31 32  2  0      
 32 33  1  0      
 32 34  1  0      
 34 35  2  0      
 29 35  1  0      
  4 36  1  0      
 36 37  1  0      
 36 38  1  0      
 38 39  1  0      
 38 40  1  0      
  2 40  1  0      
 40 41  1  0      
M  END
>  <Bioactivity>
Naringin is a flavanone glycoside, which exerts a variety of pharmacological effects such as antioxidant activity, blood lipid lowering, antiY activity, and inhibition of cytochrome P450 enzymes.

>  <CAS>
10236-47-2

>  <Col>
11

>  <Formula>
C27H32O14

>  <ID>
T0595

>  <Index>
130

>  <MOLENAME>
Naringin

>  <MolWt>
580.53

>  <Pathways>
Metabolism

>  <Plate>
PLATE 002

>  <QR code>
1152411567

>  <Receptor>
P450s

>  <Reference>
1. Ueng YF, et al. Life Sci, 1999, 65(24), 2591-2602.

>  <Row>
E

>  <SMILES>
CC1OC(OC2C(O)C(O)C(CO)OC2OC2=CC(O)=C3C(=O)CC(OC3=C2)C2=CC=C(O)C=C2)C(O)C(O)C1O

>  <Target>
CYP inhibitor

>  <Weight>
10.1mg

$$$$
Lab-1.sdf
  ChemDraw05232018482D

 62 69  0  0  0  0  0  0  0  0999 V2000
   -4.6440   -3.5062    0.0000 O   0  0  0  0  0  0  0  0  0  0  0  0
   -3.9295   -3.0937    0.0000 C   0  0  0  0  0  0  0  0  0  0  0  0
   -3.2150   -3.5062    0.0000 C   0  0  0  0  0  0  0  0  0  0  0  0
   -2.5006   -3.0937    0.0000 O   0  0  0  0  0  0  0  0  0  0  0  0
   -1.7861   -3.5062    0.0000 C   0  0  0  0  0  0  0  0  0  0  0  0
   -1.0716   -3.0937    0.0000 O   0  0  0  0  0  0  0  0  0  0  0  0
   -1.0716   -2.2687    0.0000 C   0  0  0  0  0  0  0  0  0  0  0  0
   -1.7861   -1.8562    0.0000 C   0  0  0  0  0  0  0  0  0  0  0  0
   -1.7861   -1.0312    0.0000 C   0  0  0  0  0  0  0  0  0  0  0  0
   -1.0716   -0.6187    0.0000 C   0  0  0  0  0  0  0  0  0  0  0  0
   -0.3573   -1.0312    0.0000 C   0  0  0  0  0  0  0  0  0  0  0  0
   -0.3573   -1.8562    0.0000 C   0  0  0  0  0  0  0  0  0  0  0  0
    0.3573   -2.2687    0.0000 C   0  0  0  0  0  0  0  0  0  0  0  0
    0.3573   -3.0937    0.0000 O   0  0  0  0  0  0  0  0  0  0  0  0
    1.0717   -1.8562    0.0000 C   0  0  0  0  0  0  0  0  0  0  0  0
    1.0717   -1.0312    0.0000 C   0  0  0  0  0  0  0  0  0  0  0  0
    1.7862   -0.6187    0.0000 C   0  0  0  0  0  0  0  0  0  0  0  0
    2.5006   -1.0312    0.0000 C   0  0  0  0  0  0  0  0  0  0  0  0
    2.5006   -1.8562    0.0000 C   0  0  0  0  0  0  0  0  0  0  0  0
    1.7862   -2.2687    0.0000 C   0  0  0  0  0  0  0  0  0  0  0  0
    1.7862   -3.0937    0.0000 O   0  0  0  0  0  0  0  0  0  0  0  0
    3.2151   -0.6187    0.0000 C   0  0  0  0  0  0  0  0  0  0  0  0
    3.9296   -1.0312    0.0000 O   0  0  0  0  0  0  0  0  0  0  0  0
    3.2151    0.2063    0.0000 O   0  0  0  0  0  0  0  0  0  0  0  0
    0.3573   -0.6187    0.0000 C   0  0  0  0  0  0  0  0  0  0  0  0
    0.3573    0.2063    0.0000 C   0  0  0  0  0  0  0  0  0  0  0  0
    1.0717    0.6188    0.0000 C   0  0  0  0  0  0  0  0  0  0  0  0
    1.0717    1.4438    0.0000 C   0  0  0  0  0  0  0  0  0  0  0  0
    1.7862    1.8562    0.0000 C   0  0  0  0  0  0  0  0  0  0  0  0
    1.7862    2.6812    0.0000 O   0  0  0  0  0  0  0  0  0  0  0  0
    2.5006    3.0937    0.0000 C   0  0  0  0  0  0  0  0  0  0  0  0
    2.5006    3.9187    0.0000 O   0  0  0  0  0  0  0  0  0  0  0  0
    3.2151    4.3312    0.0000 C   0  0  0  0  0  0  0  0  0  0  0  0
    3.2151    5.1562    0.0000 C   0  0  0  0  0  0  0  0  0  0  0  0
    2.5006    5.5687    0.0000 O   0  0  0  0  0  0  0  0  0  0  0  0
    3.9296    3.9187    0.0000 C   0  0  0  0  0  0  0  0  0  0  0  0
    4.6440    4.3312    0.0000 O   0  0  0  0  0  0  0  0  0  0  0  0
    3.9296    3.0937    0.0000 C   0  0  0  0  0  0  0  0  0  0  0  0
    4.6440    2.6812    0.0000 O   0  0  0  0  0  0  0  0  0  0  0  0
    3.2151    2.6812    0.0000 C   0  0  0  0  0  0  0  0  0  0  0  0
    3.2151    1.8562    0.0000 O   0  0  0  0  0  0  0  0  0  0  0  0
    2.5006    1.4438    0.0000 C   0  0  0  0  0  0  0  0  0  0  0  0
    2.5006    0.6188    0.0000 C   0  0  0  0  0  0  0  0  0  0  0  0
    1.7862    0.2063    0.0000 C   0  0  0  0  0  0  0  0  0  0  0  0
    0.3573    1.8562    0.0000 C   0  0  0  0  0  0  0  0  0  0  0  0
    0.3573    2.6812    0.0000 O   0  0  0  0  0  0  0  0  0  0  0  0
   -0.3573    1.4438    0.0000 C   0  0  0  0  0  0  0  0  0  0  0  0
   -0.3573    0.6188    0.0000 C   0  0  0  0  0  0  0  0  0  0  0  0
   -1.0716    0.2063    0.0000 C   0  0  0  0  0  0  0  0  0  0  0  0
   -1.7861    0.6188    0.0000 C   0  0  0  0  0  0  0  0  0  0  0  0
   -1.7861    1.4438    0.0000 C   0  0  0  0  0  0  0  0  0  0  0  0
   -1.0716    1.8562    0.0000 C   0  0  0  0  0  0  0  0  0  0  0  0
   -1.0716    2.6812    0.0000 O   0  0  0  0  0  0  0  0  0  0  0  0
   -2.5006    0.2063    0.0000 C   0  0  0  0  0  0  0  0  0  0  0  0
   -3.2150    0.6188    0.0000 O   0  0  0  0  0  0  0  0  0  0  0  0
   -2.5006   -0.6187    0.0000 O   0  0  0  0  0  0  0  0  0  0  0  0
   -1.7861   -4.3312    0.0000 C   0  0  0  0  0  0  0  0  0  0  0  0
   -1.0716   -4.7437    0.0000 O   0  0  0  0  0  0  0  0  0  0  0  0
   -2.5006   -4.7437    0.0000 C   0  0  0  0  0  0  0  0  0  0  0  0
   -2.5006   -5.5687    0.0000 O   0  0  0  0  0  0  0  0  0  0  0  0
   -3.2150   -4.3312    0.0000 C   0  0  0  0  0  0  0  0  0  0  0  0
   -3.9295   -4.7437    0.0000 O   0  0  0  0  0  0  0  0  0  0  0  0
  1  2  1  0      
  2  3  1  0      
  3  4  1  0      
  4  5  1  0      
  5  6  1  0      
  6  7  1  0      
  7  8  2  0      
  8  9  1  0      
  9 10  2  0      
 10 11  1  0      
 11 12  2  0      
  7 12  1  0      
 12 13  1  0      
 13 14  2  0      
 13 15  1  0      
 15 16  2  0      
 16 17  1  0      
 17 18  2  0      
 18 19  1  0      
 19 20  2  0      
 15 20  1  0      
 20 21  1  0      
 18 22  1  0      
 22 23  1  0      
 22 24  2  0      
 16 25  1  0      
 11 25  1  0      
 25 26  1  0      
 26 27  1  0      
 27 28  2  0      
 28 29  1  0      
 29 30  1  0      
 30 31  1  0      
 31 32  1  0      
 32 33  1  0      
 33 34  1  0      
 34 35  1  0      
 33 36  1  0      
 36 37  1  0      
 36 38  1  0      
 38 39  1  0      
 38 40  1  0      
 31 40  1  0      
 40 41  1  0      
 29 42  2  0      
 42 43  1  0      
 43 44  2  0      
 27 44  1  0      
 28 45  1  0      
 45 46  2  0      
 45 47  1  0      
 47 48  2  0      
 26 48  1  0      
 48 49  1  0      
 49 50  2  0      
 50 51  1  0      
 51 52  2  0      
 47 52  1  0      
 52 53  1  0      
 50 54  1  0      
 54 55  1  0      
 54 56  2  0      
  5 57  1  0      
 57 58  1  0      
 57 59  1  0      
 59 60  1  0      
 59 61  1  0      
  3 61  1  0      
 61 62  1  0      
M  END
>  <Bioactivity>
Sennoside A, a kind of irritant laxative isolated from rhei rhizome, causes purgative actions in the intestine.

>  <CAS>
81-27-6

>  <Col>
2

>  <Formula>
C42H38O20

>  <ID>
T0966

>  <Index>
131

>  <MOLENAME>
Sennoside A

>  <MolWt>
862.74

>  <Pathways>
Metabolism

>  <Plate>
PLATE 002

>  <QR code>
1152411555

>  <Receptor>
MAO

>  <Reference>
1. Hiraoka A, et al. Chem Pharm Bull, 1989, 37(10), 2744-2746.

>  <Row>
F

>  <SMILES>
OCC1OC(OC2=CC=CC3=C2C(=O)C2=C(C=C(C=C2O)C(O)=O)C3C2C3=C(C(OC4OC(CO)C(O)C(O)C4O)=CC=C3)C(=O)C3=C2C=C(C=C3O)C(O)=O)C(O)C(O)C1O

>  <Target>
MAO inhibitor

>  <Weight>
10.3mg

$$$$
Lab-1.sdf
  ChemDraw05232018482D

 58 61  0  0  0  0  0  0  0  0999 V2000
   -2.1433   -3.6275    0.0000 C   0  0  0  0  0  0  0  0  0  0  0  0
   -1.4289   -3.2151    0.0000 C   0  0  0  0  0  0  0  0  0  0  0  0
   -1.4289   -2.3901    0.0000 C   0  0  0  0  0  0  0  0  0  0  0  0
   -2.1433   -2.8026    0.0000 O   0  0  0  0  0  0  0  0  0  0  0  0
   -2.8578   -2.3901    0.0000 C   0  0  0  0  0  0  0  0  0  0  0  0
   -3.5723   -2.8026    0.0000 O   0  0  0  0  0  0  0  0  0  0  0  0
   -2.8578   -1.5651    0.0000 C   0  0  0  0  0  0  0  0  0  0  0  0
   -3.6783   -1.6513    0.0000 C   0  0  0  0  0  0  0  0  0  0  0  0
   -2.1433   -1.1526    0.0000 C   0  0  0  0  0  0  0  0  0  0  0  0
   -2.8578   -0.7401    0.0000 O   0  0  0  0  0  0  0  0  0  0  0  0
   -3.5723   -1.1526    0.0000 C   0  0  0  0  0  0  0  0  0  0  0  0
   -3.5723   -1.9776    0.0000 C   0  0  0  0  0  0  0  0  0  0  0  0
   -4.2867   -2.3901    0.0000 C   0  0  0  0  0  0  0  0  0  0  0  0
   -3.7564   -3.0221    0.0000 C   0  0  0  0  0  0  0  0  0  0  0  0
   -4.8170   -3.0221    0.0000 O   0  0  0  0  0  0  0  0  0  0  0  0
   -4.5349   -3.7972    0.0000 C   0  0  0  0  0  0  0  0  0  0  0  0
   -5.0012   -1.9776    0.0000 C   0  0  0  0  0  0  0  0  0  0  0  0
   -5.7156   -2.3901    0.0000 O   0  0  0  0  0  0  0  0  0  0  0  0
   -5.0012   -1.1526    0.0000 C   0  0  0  0  0  0  0  0  0  0  0  0
   -5.7156   -0.7401    0.0000 C   0  0  0  0  0  0  0  0  0  0  0  0
   -4.2867   -0.7401    0.0000 O   0  0  0  0  0  0  0  0  0  0  0  0
   -2.1433   -0.3276    0.0000 C   0  0  0  0  0  0  0  0  0  0  0  0
   -2.8578    0.0848    0.0000 C   0  0  0  0  0  0  0  0  0  0  0  0
   -1.4289    0.0848    0.0000 C   0  0  0  0  0  0  0  0  0  0  0  0
   -1.4289    0.9098    0.0000 O   0  0  0  0  0  0  0  0  0  0  0  0
   -2.1433    1.3223    0.0000 C   0  0  0  0  0  0  0  0  0  0  0  0
   -2.8578    0.9098    0.0000 O   0  0  0  0  0  0  0  0  0  0  0  0
   -3.5723    1.3223    0.0000 C   0  0  0  0  0  0  0  0  0  0  0  0
   -4.2867    0.9098    0.0000 C   0  0  0  0  0  0  0  0  0  0  0  0
   -3.5723    2.1473    0.0000 C   0  0  0  0  0  0  0  0  0  0  0  0
   -2.8578    2.5598    0.0000 C   0  0  0  0  0  0  0  0  0  0  0  0
   -2.1433    2.1473    0.0000 C   0  0  0  0  0  0  0  0  0  0  0  0
   -1.4289    2.5598    0.0000 O   0  0  0  0  0  0  0  0  0  0  0  0
   -2.8578    3.3848    0.0000 N   0  0  0  0  0  0  0  0  0  0  0  0
   -2.1433    3.7972    0.0000 C   0  0  0  0  0  0  0  0  0  0  0  0
   -3.5723    3.7972    0.0000 C   0  0  0  0  0  0  0  0  0  0  0  0
   -0.7145   -0.3276    0.0000 C   0  0  0  0  0  0  0  0  0  0  0  0
   -0.9966    0.4475    0.0000 C   0  0  0  0  0  0  0  0  0  0  0  0
   -0.4323    0.4475    0.0000 O   0  0  0  0  0  0  0  0  0  0  0  0
   -0.0000    0.0848    0.0000 C   0  0  0  0  0  0  0  0  0  0  0  0
    0.7145   -0.3276    0.0000 C   0  0  0  0  0  0  0  0  0  0  0  0
    1.4289    0.0848    0.0000 C   0  0  0  0  0  0  0  0  0  0  0  0
    0.7145   -1.1526    0.0000 C   0  0  0  0  0  0  0  0  0  0  0  0
    1.4289   -1.5651    0.0000 N   0  0  0  0  0  0  0  0  0  0  0  0
    1.4289   -2.3901    0.0000 C   0  0  0  0  0  0  0  0  0  0  0  0
    2.1433   -2.8026    0.0000 C   0  0  0  0  0  0  0  0  0  0  0  0
    2.8578   -2.3901    0.0000 O   0  0  0  0  0  0  0  0  0  0  0  0
    3.5723   -2.8026    0.0000 C   0  0  0  0  0  0  0  0  0  0  0  0
    4.2867   -2.3901    0.0000 C   0  0  0  0  0  0  0  0  0  0  0  0
    5.0012   -2.8026    0.0000 O   0  0  0  0  0  0  0  0  0  0  0  0
    5.7156   -2.3901    0.0000 C   0  0  0  0  0  0  0  0  0  0  0  0
    0.7145   -2.8026    0.0000 O   0  0  0  0  0  0  0  0  0  0  0  0
   -0.0000   -2.3901    0.0000 C   0  0  0  0  0  0  0  0  0  0  0  0
   -0.0000   -1.5651    0.0000 C   0  0  0  0  0  0  0  0  0  0  0  0
   -0.7145   -1.1526    0.0000 C   0  0  0  0  0  0  0  0  0  0  0  0
   -0.7145   -2.8026    0.0000 C   0  0  0  0  0  0  0  0  0  0  0  0
   -0.3272   -3.5309    0.0000 C   0  0  0  0  0  0  0  0  0  0  0  0
   -1.1018   -3.5309    0.0000 O   0  0  0  0  0  0  0  0  0  0  0  0
  1  2  1  0      
  2  3  1  0      
  3  4  1  0      
  4  5  1  0      
  5  6  2  0      
  5  7  1  0      
  7  8  1  0      
  7  9  1  0      
  9 10  1  0      
 10 11  1  0      
 11 12  1  0      
 12 13  1  0      
 13 14  1  0      
 13 15  1  0      
 15 16  1  0      
 13 17  1  0      
 17 18  1  0      
 17 19  1  0      
 19 20  1  0      
 19 21  1  0      
 11 21  1  0      
  9 22  1  0      
 22 23  1  0      
 22 24  1  0      
 24 25  1  0      
 25 26  1  0      
 26 27  1  0      
 27 28  1  0      
 28 29  1  0      
 28 30  1  0      
 30 31  1  0      
 31 32  1  0      
 26 32  1  0      
 32 33  1  0      
 31 34  1  0      
 34 35  1  0      
 34 36  1  0      
 24 37  1  0      
 37 38  1  0      
 37 39  1  0      
 37 40  1  0      
 40 41  1  0      
 41 42  1  0      
 41 43  1  0      
 43 44  1  0      
 44 45  1  0      
 45 46  1  0      
 46 47  1  0      
 47 48  1  0      
 48 49  1  0      
 49 50  1  0      
 50 51  1  0      
 45 52  1  0      
 52 53  1  0      
 53 54  1  0      
 43 54  1  0      
 54 55  1  0      
 53 56  1  0      
  3 56  1  0      
 56 57  1  0      
 56 58  1  0      
M  END
>  <Bioactivity>
Dirithromycin is a macrolide glycopeptide antibiotic by binding to the 50S subunit of the 70S bacterial ribosome to inhibit the translocation of peptides.

>  <CAS>
62013-04-1

>  <Col>
3

>  <Formula>
C42H78N2O14

>  <ID>
T0971

>  <Index>
132

>  <MOLENAME>
Dirithromycin

>  <MolWt>
835.07

>  <Pathways>
Microbiology & Virology

>  <Plate>
PLATE 002

>  <QR code>
1152411556

>  <Receptor>
50S/70S ribosomal protein

>  <Reference>
1. Moutard I, et al. Therapie, 1999, 54(5), 607-612.

>  <Row>
F

>  <SMILES>
CCC1OC(=O)C(C)C(OC2CC(C)(OC)C(O)C(C)O2)C(C)C(OC2OC(C)CC(C2O)N(C)C)C(C)(O)CC(C)C2NC(COCCOC)OC(C2C)C1(C)O

>  <Target>
Antibiotic

>  <Weight>
10.2mg

$$$$
Lab-1.sdf
  ChemDraw05232018482D

 64 71  0  0  0  0  0  0  0  0999 V2000
   -5.7887   -2.9509    0.0000 C   0  0  0  0  0  0  0  0  0  0  0  0
   -5.1375   -3.4575    0.0000 O   0  0  0  0  0  0  0  0  0  0  0  0
   -4.3733   -3.1469    0.0000 C   0  0  0  0  0  0  0  0  0  0  0  0
   -3.7221   -3.6535    0.0000 C   0  0  0  0  0  0  0  0  0  0  0  0
   -2.9578   -3.3429    0.0000 C   0  0  0  0  0  0  0  0  0  0  0  0
   -2.3067   -3.8494    0.0000 O   0  0  0  0  0  0  0  0  0  0  0  0
   -1.5424   -3.5388    0.0000 C   0  0  0  0  0  0  0  0  0  0  0  0
   -1.4292   -2.7216    0.0000 C   0  0  0  0  0  0  0  0  0  0  0  0
   -2.0804   -2.2150    0.0000 C   0  0  0  0  0  0  0  0  0  0  0  0
   -0.6649   -2.4110    0.0000 O   0  0  0  0  0  0  0  0  0  0  0  0
   -0.0139   -2.9176    0.0000 C   0  0  0  0  0  0  0  0  0  0  0  0
   -0.1270   -3.7348    0.0000 C   0  0  0  0  0  0  0  0  0  0  0  0
   -0.8912   -4.0454    0.0000 C   0  0  0  0  0  0  0  0  0  0  0  0
   -1.0044   -4.8626    0.0000 O   0  0  0  0  0  0  0  0  0  0  0  0
   -1.7687   -5.1732    0.0000 C   0  0  0  0  0  0  0  0  0  0  0  0
    0.7504   -2.6070    0.0000 O   0  0  0  0  0  0  0  0  0  0  0  0
    0.8635   -1.7897    0.0000 C   0  0  0  0  0  0  0  0  0  0  0  0
    0.2124   -1.2832    0.0000 C   0  0  0  0  0  0  0  0  0  0  0  0
   -0.5518   -1.5938    0.0000 C   0  0  0  0  0  0  0  0  0  0  0  0
    0.3255   -0.4660    0.0000 C   0  0  0  0  0  0  0  0  0  0  0  0
   -0.3256    0.0406    0.0000 C   0  0  0  0  0  0  0  0  0  0  0  0
   -0.2125    0.8578    0.0000 C   0  0  0  0  0  0  0  0  0  0  0  0
   -0.8635    1.3644    0.0000 C   0  0  0  0  0  0  0  0  0  0  0  0
   -1.6864    1.3052    0.0000 C   0  0  0  0  0  0  0  0  0  0  0  0
   -1.9970    2.0695    0.0000 O   0  0  0  0  0  0  0  0  0  0  0  0
   -1.3661    2.6011    0.0000 C   0  0  0  0  0  0  0  0  0  0  0  0
   -1.3390    3.4256    0.0000 C   0  0  0  0  0  0  0  0  0  0  0  0
   -2.0396    3.8614    0.0000 O   0  0  0  0  0  0  0  0  0  0  0  0
   -0.6114    3.8144    0.0000 C   0  0  0  0  0  0  0  0  0  0  0  0
   -0.5843    4.6390    0.0000 C   0  0  0  0  0  0  0  0  0  0  0  0
    0.0890    3.3787    0.0000 C   0  0  0  0  0  0  0  0  0  0  0  0
    0.0139    2.4922    0.0000 C   0  0  0  0  0  0  0  0  0  0  0  0
    0.6649    1.9857    0.0000 C   0  0  0  0  0  0  0  0  0  0  0  0
    0.5518    1.1685    0.0000 O   0  0  0  0  0  0  0  0  0  0  0  0
    1.4292    2.2963    0.0000 O   0  0  0  0  0  0  0  0  0  0  0  0
    2.0804    1.7897    0.0000 C   0  0  0  0  0  0  0  0  0  0  0  0
    1.9672    0.9725    0.0000 C   0  0  0  0  0  0  0  0  0  0  0  0
    2.6184    0.4659    0.0000 C   0  0  0  0  0  0  0  0  0  0  0  0
    2.5053   -0.3513    0.0000 C   0  0  0  0  0  0  0  0  0  0  0  0
    1.7410   -0.6619    0.0000 C   0  0  0  0  0  0  0  0  0  0  0  0
    1.6278   -1.4791    0.0000 C   0  0  0  0  0  0  0  0  0  0  0  0
    2.2790   -1.9857    0.0000 C   0  0  0  0  0  0  0  0  0  0  0  0
    3.3827    0.7765    0.0000 O   0  0  0  0  0  0  0  0  0  0  0  0
    3.4958    1.5937    0.0000 C   0  0  0  0  0  0  0  0  0  0  0  0
    2.8447    2.1003    0.0000 C   0  0  0  0  0  0  0  0  0  0  0  0
    3.6090    2.4109    0.0000 O   0  0  0  0  0  0  0  0  0  0  0  0
    4.3733    2.7216    0.0000 C   0  0  0  0  0  0  0  0  0  0  0  0
    4.4864    3.5388    0.0000 C   0  0  0  0  0  0  0  0  0  0  0  0
    3.8352    4.0453    0.0000 C   0  0  0  0  0  0  0  0  0  0  0  0
    3.9484    4.8625    0.0000 C   0  0  0  0  0  0  0  0  0  0  0  0
    4.7127    5.1732    0.0000 C   0  0  0  0  0  0  0  0  0  0  0  0
    5.3638    4.6666    0.0000 C   0  0  0  0  0  0  0  0  0  0  0  0
    5.2507    3.8494    0.0000 C   0  0  0  0  0  0  0  0  0  0  0  0
    5.0244    2.2150    0.0000 C   0  0  0  0  0  0  0  0  0  0  0  0
    5.7887    2.5256    0.0000 C   0  0  0  0  0  0  0  0  0  0  0  0
    4.9113    1.3978    0.0000 C   0  0  0  0  0  0  0  0  0  0  0  0
    4.1470    1.0871    0.0000 C   0  0  0  0  0  0  0  0  0  0  0  0
   -0.7504    2.1816    0.0000 C   0  0  0  0  0  0  0  0  0  0  0  0
   -0.6631    3.0020    0.0000 O   0  0  0  0  0  0  0  0  0  0  0  0
   -2.8447   -2.5256    0.0000 O   0  0  0  0  0  0  0  0  0  0  0  0
   -3.4958   -2.0191    0.0000 C   0  0  0  0  0  0  0  0  0  0  0  0
   -3.3827   -1.2019    0.0000 C   0  0  0  0  0  0  0  0  0  0  0  0
   -4.2601   -2.3297    0.0000 C   0  0  0  0  0  0  0  0  0  0  0  0
   -4.9113   -1.8231    0.0000 O   0  0  0  0  0  0  0  0  0  0  0  0
  1  2  1  0      
  2  3  1  0      
  3  4  1  0      
  4  5  1  0      
  5  6  1  0      
  6  7  1  0      
  7  8  1  0      
  8  9  1  0      
  8 10  1  0      
 10 11  1  0      
 11 12  1  0      
 12 13  1  0      
  7 13  1  0      
 13 14  1  0      
 14 15  1  0      
 11 16  1  0      
 16 17  1  0      
 17 18  1  0      
 18 19  1  0      
 20 18  1  4      
 20 21  2  0      
 22 21  1  4      
 22 23  2  0      
 23 24  1  0      
 24 25  1  0      
 25 26  1  0      
 26 27  1  0      
 27 28  1  0      
 27 29  1  0      
 29 30  1  0      
 29 31  2  0      
 31 32  1  0      
 32 33  1  0      
 33 34  2  0      
 33 35  1  0      
 35 36  1  0      
 36 37  1  0      
 37 38  1  0      
 38 39  1  0      
 40 39  1  4      
 40 41  2  0      
 17 41  1  0      
 41 42  1  0      
 38 43  1  0      
 43 44  1  0      
 44 45  1  0      
 36 45  1  0      
 44 46  1  0      
 46 47  1  0      
 47 48  1  0      
 48 49  1  0      
 49 50  1  0      
 50 51  1  0      
 51 52  1  0      
 52 53  1  0      
 48 53  1  0      
 47 54  1  0      
 54 55  1  0      
 54 56  1  0      
 56 57  2  0      
 44 57  1  0      
 32 58  1  0      
 23 58  1  0      
 26 58  1  0      
 58 59  1  0      
  5 60  1  0      
 60 61  1  0      
 61 62  1  0      
 61 63  1  0      
  3 63  1  0      
 63 64  1  0      
M  END
>  <Bioactivity>
Doramectin is an antiparasitic agent.

>  <CAS>
117704-25-3

>  <Col>
4

>  <Formula>
C50H74O14

>  <ID>
T0969

>  <Index>
133

>  <MOLENAME>
Doramectin

>  <MolWt>
899.11

>  <Pathways>
Microbiology & Virology

>  <Plate>
PLATE 002

>  <QR code>
1152411557

>  <Receptor>
Antiparasitic

>  <Reference>
1. Davey RB, et al. Exp Appl Acarol. 2012 Apr;56(4):365-74.

>  <Row>
F

>  <SMILES>
COC1CC(OC2C(C)OC(CC2OC)OC2C(C)C=CC=C3COC4C(O)C(C)=CC(C(=O)OC5CC(CC=C2C)OC2(C5)OC(C5CCCCC5)C(C)C=C2)C34O)OC(C)C1O

>  <Target>
Antiparasitic

>  <Weight>
10.3mg

$$$$
Lab-1.sdf
  ChemDraw05232018482D

 12 12  0  0  0  0  0  0  0  0999 V2000
    0.7145    1.8562    0.0000 C   0  0  0  0  0  0  0  0  0  0  0  0
    0.7145    1.0313    0.0000 C   0  0  0  0  0  0  0  0  0  0  0  0
    1.4289    0.6188    0.0000 N   0  0  0  0  0  0  0  0  0  0  0  0
    1.4289   -0.2062    0.0000 C   0  0  0  0  0  0  0  0  0  0  0  0
    0.7145   -0.6187    0.0000 C   0  0  0  0  0  0  0  0  0  0  0  0
    0.7145   -1.4437    0.0000 C   0  0  0  0  0  0  0  0  0  0  0  0
    1.4289   -1.8562    0.0000 O   0  0  0  0  0  0  0  0  0  0  0  0
   -0.0000   -0.2062    0.0000 C   0  0  0  0  0  0  0  0  0  0  0  0
   -0.7145   -0.6187    0.0000 C   0  0  0  0  0  0  0  0  0  0  0  0
   -1.4289   -0.2062    0.0000 O   0  0  0  0  0  0  0  0  0  0  0  0
   -0.0000    0.6188    0.0000 C   0  0  0  0  0  0  0  0  0  0  0  0
   -0.7145    1.0313    0.0000 O   0  0  0  0  0  0  0  0  0  0  0  0
  1  2  1  0      
  2  3  2  0      
  3  4  1  0      
  4  5  2  0      
  5  6  1  0      
  6  7  1  0      
  5  8  1  0      
  8  9  1  0      
  9 10  1  0      
  8 11  2  0      
  2 11  1  0      
 11 12  1  0      
M  END
>  <Bioactivity>
Pyridoxine is the 4-methanol form of vitamin B6 and is converted to pyridoxal 5-phosphate in the body. Although pyridoxine and vitamin B6 are still frequently used as synonyms, especially by medical r
esearchers, this practice is erroneous and sometimes misleading. 

>  <CAS>
65-23-6

>  <Col>
5

>  <Formula>
C8H11NO3

>  <ID>
T0973

>  <Index>
134

>  <MOLENAME>
Pyridoxine

>  <MolWt>
169.18

>  <Pathways>
Cell Cycle/Checkpoint

>  <Plate>
PLATE 002

>  <QR code>
1152411558

>  <Receptor>
PLK

>  <Reference>
1. Adams JB, et al. J Altern Complement Med. 2006 Jan-Feb;12(1):59-63.

>  <Row>
F

>  <SMILES>
CC1=NC=C(CO)C(CO)=C1O

>  <Target>
PLK

>  <Weight>
10.1mg

$$$$
Lab-1.sdf
  ChemDraw05232018482D

 28 30  0  0  0  0  0  0  0  0999 V2000
   -4.0181   -0.4814    0.0000 H   0  3  0  0  0  0  0  0  0  0  0  0
   -4.8431   -0.4814    0.0000 Cl  0  5  0  0  0  0  0  0  0  0  0  0
   -0.5724    2.3416    0.0000 C   0  0  0  0  0  0  0  0  0  0  0  0
   -0.8445    1.5628    0.0000 O   0  0  0  0  0  0  0  0  0  0  0  0
   -0.3061    0.9377    0.0000 C   0  0  0  0  0  0  0  0  0  0  0  0
    0.5044    1.0914    0.0000 O   0  0  0  0  0  0  0  0  0  0  0  0
   -0.5783    0.1588    0.0000 C   0  0  0  0  0  0  0  0  0  0  0  0
   -1.3888    0.0050    0.0000 C   0  0  0  0  0  0  0  0  0  0  0  0
   -1.9272    0.6302    0.0000 O   0  0  0  0  0  0  0  0  0  0  0  0
   -1.6610   -0.7738    0.0000 C   0  0  0  0  0  0  0  0  0  0  0  0
   -1.1226   -1.3989    0.0000 C   0  0  0  0  0  0  0  0  0  0  0  0
   -0.3120   -1.2452    0.0000 C   0  0  0  0  0  0  0  0  0  0  0  0
    0.2265   -1.8703    0.0000 C   0  0  0  0  0  0  0  0  0  0  0  0
    1.0371   -1.7165    0.0000 N   0  0  0  0  0  0  0  0  0  0  0  0
    1.5755   -2.3416    0.0000 C   0  0  0  0  0  0  0  0  0  0  0  0
    2.3860   -2.1879    0.0000 C   0  0  0  0  0  0  0  0  0  0  0  0
    2.6582   -1.4091    0.0000 C   0  0  0  0  0  0  0  0  0  0  0  0
    2.1198   -0.7840    0.0000 C   0  0  0  0  0  0  0  0  0  0  0  0
    2.5479   -0.0787    0.0000 N   0  0  0  0  0  0  0  0  0  0  0  0
    3.3509   -0.2679    0.0000 C   0  0  0  0  0  0  0  0  0  0  0  0
    4.0288    0.2022    0.0000 C   0  0  0  0  0  0  0  0  0  0  0  0
    4.7749   -0.1500    0.0000 C   0  0  0  0  0  0  0  0  0  0  0  0
    4.8431   -0.9721    0.0000 C   0  0  0  0  0  0  0  0  0  0  0  0
    4.1651   -1.4423    0.0000 C   0  0  0  0  0  0  0  0  0  0  0  0
    3.4190   -1.0902    0.0000 C   0  0  0  0  0  0  0  0  0  0  0  0
    1.3092   -0.9376    0.0000 C   0  0  0  0  0  0  0  0  0  0  0  0
    0.7708   -0.3126    0.0000 C   0  0  0  0  0  0  0  0  0  0  0  0
   -0.0399   -0.4664    0.0000 C   0  0  0  0  0  0  0  0  0  0  0  0
  3  4  1  0      
  4  5  1  0      
  5  6  2  0      
  5  7  1  0      
  7  8  1  0      
  8  9  1  0      
  8 10  1  0      
 10 11  1  0      
 11 12  1  0      
 12 13  1  0      
 13 14  1  0      
 14 15  1  0      
 15 16  1  0      
 16 17  1  0      
 17 18  2  0      
 18 19  1  0      
 19 20  1  0      
 20 21  2  0      
 21 22  1  0      
 22 23  2  0      
 23 24  1  0      
 24 25  2  0      
 17 25  1  0      
 20 25  1  0      
 18 26  1  0      
 14 26  1  0      
 26 27  1  0      
 27 28  1  0      
  7 28  1  0      
 12 28  1  0      
M  CHG  2   1   1   2  -1
M  END
>  <Bioactivity>
Yohimbine hydrochloride is an alpha 2-adrenoreceptor antagonist, blocking the pre- and postsynaptic alpha-2 adrenoreceptors and causing an increased release of noradrenaline and dopamine.

>  <CAS>
65-19-0

>  <Col>
6

>  <Formula>
C21H27ClN2O3

>  <ID>
T2142

>  <Index>
135

>  <MOLENAME>
Yohimbine hydrochloride

>  <MolWt>
390.9

>  <Pathways>
GPCR/G Protein

>  <Plate>
PLATE 002

>  <QR code>
1152411559

>  <Receptor>
¦Á-adrenergic receptor

>  <Reference>
1. Ernst E, et al. J Urol, 1998, 159(2), 433-436.

>  <Row>
F

>  <SMILES>
[H+].[Cl-].COC(=O)C1C(O)CCC2CN3CCC4=C(NC5=CC=CC=C45)C3CC12

>  <Target>
Adrenergic Receptor antagonist 

>  <Weight>
10.4mg

$$$$
Lab-1.sdf
  ChemDraw05232018482D

 23 26  0  0  0  0  0  0  0  0999 V2000
   -2.0035   -0.8610    0.0000 C   0  0  0  0  0  0  0  0  0  0  0  0
   -1.6437   -0.1186    0.0000 C   0  0  0  0  0  0  0  0  0  0  0  0
   -1.1118   -0.7493    0.0000 C   0  0  0  0  0  0  0  0  0  0  0  0
   -0.2997   -0.6041    0.0000 C   0  0  0  0  0  0  0  0  0  0  0  0
   -0.0194    0.1719    0.0000 C   0  0  0  0  0  0  0  0  0  0  0  0
   -0.5512    0.8026    0.0000 C   0  0  0  0  0  0  0  0  0  0  0  0
   -0.2710    1.5786    0.0000 C   0  0  0  0  0  0  0  0  0  0  0  0
    0.5413    1.7238    0.0000 C   0  0  0  0  0  0  0  0  0  0  0  0
    1.0731    1.0931    0.0000 C   0  0  0  0  0  0  0  0  0  0  0  0
    1.8852    1.2383    0.0000 C   0  0  0  0  0  0  0  0  0  0  0  0
    2.4170    0.6076    0.0000 C   0  0  0  0  0  0  0  0  0  0  0  0
    3.2291    0.7528    0.0000 O   0  0  0  0  0  0  0  0  0  0  0  0
    2.1367   -0.1685    0.0000 C   0  0  0  0  0  0  0  0  0  0  0  0
    1.3246   -0.3137    0.0000 C   0  0  0  0  0  0  0  0  0  0  0  0
    0.7928    0.3171    0.0000 C   0  0  0  0  0  0  0  0  0  0  0  0
    0.5125   -0.4589    0.0000 C   0  0  0  0  0  0  0  0  0  0  0  0
   -1.3634    0.6574    0.0000 C   0  0  0  0  0  0  0  0  0  0  0  0
   -2.0147    1.1638    0.0000 C   0  0  0  0  0  0  0  0  0  0  0  0
   -2.6975    0.7008    0.0000 C   0  0  0  0  0  0  0  0  0  0  0  0
   -2.4682   -0.0918    0.0000 C   0  0  0  0  0  0  0  0  0  0  0  0
   -3.2291   -0.4107    0.0000 O   0  0  0  0  0  0  0  0  0  0  0  0
   -2.5896   -0.9078    0.0000 C   0  0  0  0  0  0  0  0  0  0  0  0
   -2.7110   -1.7238    0.0000 C   0  0  0  0  0  0  0  0  0  0  0  0
  1  2  1  0      
  2  3  1  0      
  3  4  1  0      
  4  5  1  0      
  5  6  1  0      
  6  7  1  0      
  7  8  1  0      
  8  9  1  0      
  9 10  2  0      
 10 11  1  0      
 11 12  2  0      
 11 13  1  0      
 13 14  1  0      
 14 15  1  0      
  5 15  1  0      
  9 15  1  0      
 15 16  1  0      
  6 17  1  0      
  2 17  1  0      
 17 18  1  0      
 18 19  1  0      
 19 20  1  0      
  2 20  1  0      
 20 21  1  0      
 20 22  1  0      
 22 23  3  0      
M  END
>  <Bioactivity>
Ethisterone is a progestogen hormone being considered to treat prostate Y.

>  <CAS>
434-03-7

>  <Col>
7

>  <Formula>
C21H28O2

>  <ID>
T0301

>  <Index>
136

>  <MOLENAME>
Ethisterone

>  <MolWt>
312.45

>  <Pathways>
Endocrinology/ Hormones

>  <Plate>
PLATE 002

>  <QR code>
1152411560

>  <Receptor>
ER

>  <Reference>
1. Herbai G, et al. Acta Pharmacol Toxicol (Copenh), 1971, 29(23), 177-193.

>  <Row>
F

>  <SMILES>
CC12CCC3C(CCC4=CC(=O)CCC34C)C1CCC2(O)C#C

>  <Target>
Estrogen/Progestogen Receptor agonist

>  <Weight>
10.1mg

$$$$
Lab-1.sdf
  ChemDraw05232018482D

 32 34  0  0  0  0  0  0  0  0999 V2000
    0.0971    3.4819    0.0000 O   0  0  0  0  0  0  0  0  0  0  0  0
    2.1007    3.4819    0.0000 Cl  0  0  0  0  0  0  0  0  0  0  0  0
   -3.2717   -2.7958    0.0000 C   0  0  0  0  0  0  0  0  0  0  0  0
   -2.4647   -2.9673    0.0000 O   0  0  0  0  0  0  0  0  0  0  0  0
   -1.9127   -2.3542    0.0000 C   0  0  0  0  0  0  0  0  0  0  0  0
   -1.1058   -2.5257    0.0000 C   0  0  0  0  0  0  0  0  0  0  0  0
   -0.8508   -3.3104    0.0000 O   0  0  0  0  0  0  0  0  0  0  0  0
   -0.0439   -3.4819    0.0000 C   0  0  0  0  0  0  0  0  0  0  0  0
   -0.5538   -1.9126    0.0000 C   0  0  0  0  0  0  0  0  0  0  0  0
   -0.8087   -1.1280    0.0000 C   0  0  0  0  0  0  0  0  0  0  0  0
   -1.6156   -0.9565    0.0000 C   0  0  0  0  0  0  0  0  0  0  0  0
   -2.1676   -1.5696    0.0000 C   0  0  0  0  0  0  0  0  0  0  0  0
   -0.1413   -0.6431    0.0000 C   0  0  0  0  0  0  0  0  0  0  0  0
    0.5262   -1.1280    0.0000 O   0  0  0  0  0  0  0  0  0  0  0  0
    0.2712   -1.9126    0.0000 C   0  0  0  0  0  0  0  0  0  0  0  0
    0.7561   -2.5801    0.0000 O   0  0  0  0  0  0  0  0  0  0  0  0
   -0.1413    0.1819    0.0000 C   0  0  0  0  0  0  0  0  0  0  0  0
   -0.8558    0.5944    0.0000 N   0  0  0  0  0  0  0  0  0  0  0  0
   -1.5702    0.1819    0.0000 C   0  0  0  0  0  0  0  0  0  0  0  0
   -0.8558    1.4194    0.0000 C   0  0  0  0  0  0  0  0  0  0  0  0
   -0.1413    1.8319    0.0000 C   0  0  0  0  0  0  0  0  0  0  0  0
    0.5732    1.4194    0.0000 C   0  0  0  0  0  0  0  0  0  0  0  0
    1.2877    1.8319    0.0000 C   0  0  0  0  0  0  0  0  0  0  0  0
    2.0021    1.4194    0.0000 C   0  0  0  0  0  0  0  0  0  0  0  0
    2.0021    0.5944    0.0000 C   0  0  0  0  0  0  0  0  0  0  0  0
    2.7868    0.3395    0.0000 O   0  0  0  0  0  0  0  0  0  0  0  0
    3.2717    1.0069    0.0000 C   0  0  0  0  0  0  0  0  0  0  0  0
    2.7868    1.6743    0.0000 O   0  0  0  0  0  0  0  0  0  0  0  0
    1.2877    0.1819    0.0000 C   0  0  0  0  0  0  0  0  0  0  0  0
    1.2877   -0.6431    0.0000 O   0  0  0  0  0  0  0  0  0  0  0  0
    2.0021   -1.0556    0.0000 C   0  0  0  0  0  0  0  0  0  0  0  0
    0.5732    0.5944    0.0000 C   0  0  0  0  0  0  0  0  0  0  0  0
  3  4  1  0      
  4  5  1  0      
  5  6  2  0      
  6  7  1  0      
  7  8  1  0      
  6  9  1  0      
  9 10  2  0      
 10 11  1  0      
 11 12  2  0      
  5 12  1  0      
 10 13  1  0      
 13 14  1  0      
 14 15  1  0      
  9 15  1  0      
 15 16  2  0      
 13 17  1  0      
 17 18  1  0      
 18 19  1  0      
 18 20  1  0      
 20 21  1  0      
 21 22  1  0      
 22 23  2  0      
 23 24  1  0      
 24 25  2  0      
 25 26  1  0      
 26 27  1  0      
 27 28  1  0      
 24 28  1  0      
 25 29  1  0      
 29 30  1  0      
 30 31  1  0      
 29 32  2  0      
 17 32  1  0      
 22 32  1  0      
M  END
>  <Bioactivity>
A naturally occurring opium alkaloid that is a centrally acting antitussive agent.

>  <CAS>
912-60-7

>  <Col>
8

>  <Formula>
C22H23NO7?HCl?xH2O

>  <ID>
T0981

>  <Index>
137

>  <MOLENAME>
Noscapine hydrochloride

>  <MolWt>
449.88

>  <Pathways>
Neuroscience

>  <Plate>
PLATE 002

>  <QR code>
1152411561

>  <Receptor>
Opioid alkaloid

>  <Reference>
1. Chen X, Facchini PJ. Plant J. 2014 Jan;77(2):173-84.

>  <Row>
F

>  <SMILES>
O.Cl.COC1=C(OC)C2=C(C=C1)C(OC2=O)C1N(C)CCC2=CC3=C(OCO3)C(OC)=C12

>  <Target>
Opioid Receptor

>  <Weight>
10.2mg

$$$$
Lab-1.sdf
  ChemDraw05232018482D

  9  8  0  0  0  0  0  0  0  0999 V2000
   -0.6187    1.4289    0.0000 C   0  0  0  0  0  0  0  0  0  0  0  0
   -0.2062    0.7144    0.0000 C   0  0  0  0  0  0  0  0  0  0  0  0
   -0.9207    0.3019    0.0000 C   0  0  0  0  0  0  0  0  0  0  0  0
    0.5082    1.1269    0.0000 S   0  0  0  0  0  0  0  0  0  0  0  0
    0.2062    0.0001    0.0000 C   0  0  0  0  0  0  0  0  0  0  0  0
    1.0312    0.0001    0.0000 N   0  0  0  0  0  0  0  0  0  0  0  0
   -0.2062   -0.7144    0.0000 C   0  0  0  0  0  0  0  0  0  0  0  0
    0.2062   -1.4289    0.0000 O   0  0  0  0  0  0  0  0  0  0  0  0
   -1.0312   -0.7144    0.0000 O   0  0  0  0  0  0  0  0  0  0  0  0
  1  2  1  0      
  2  3  1  0      
  2  4  1  0      
  2  5  1  0      
  5  6  1  0      
  5  7  1  0      
  7  8  1  0      
  7  9  2  0      
M  END
>  <Bioactivity>
3-Mercapto-D-valine. The most characteristic degradation product of the penicillin antibiotics. It is used as an antirheumatic and as a chelating agent in Wilson's disease.

>  <CAS>
52-67-5

>  <Col>
9

>  <Formula>
C5H11NO2S

>  <ID>
T0983

>  <Index>
138

>  <MOLENAME>
Artamine

>  <MolWt>
149.21

>  <Pathways>
Others

>  <Plate>
PLATE 002

>  <QR code>
1152411562

>  <Receptor>
Copper

>  <Reference>
1. Brewer GJ. Expert Opin PharmacOthers. 2006 Feb;7(3):317-24.

>  <Row>
F

>  <SMILES>
CC(C)(S)C(N)C(O)=O

>  <Target>
Chelator

>  <Weight>
10.2mg

$$$$
Lab-1.sdf
  ChemDraw05232018482D

 18 19  0  0  0  0  0  0  0  0999 V2000
    2.8476    0.1209    0.0000 C   0  0  0  0  0  0  0  0  0  0  0  0
    2.1331   -0.2917    0.0000 C   0  0  0  0  0  0  0  0  0  0  0  0
    2.1331   -1.1167    0.0000 O   0  0  0  0  0  0  0  0  0  0  0  0
    1.4187    0.1209    0.0000 O   0  0  0  0  0  0  0  0  0  0  0  0
    0.7042   -0.2917    0.0000 C   0  0  0  0  0  0  0  0  0  0  0  0
   -0.0103    0.1209    0.0000 C   0  0  0  0  0  0  0  0  0  0  0  0
   -0.7247   -0.2917    0.0000 C   0  0  0  0  0  0  0  0  0  0  0  0
   -1.4392    0.1209    0.0000 N   0  0  0  0  0  0  0  0  0  0  0  0
   -1.4392    0.9459    0.0000 C   0  0  0  0  0  0  0  0  0  0  0  0
   -0.7247    1.3584    0.0000 S   0  0  0  0  0  0  0  0  0  0  0  0
   -0.0103    0.9459    0.0000 C   0  0  0  0  0  0  0  0  0  0  0  0
   -2.2642    0.9459    0.0000 C   0  0  0  0  0  0  0  0  0  0  0  0
   -2.8476    1.5292    0.0000 N   0  0  0  0  0  0  0  0  0  0  0  0
   -2.2642    0.1209    0.0000 C   0  0  0  0  0  0  0  0  0  0  0  0
   -2.8476   -0.4625    0.0000 O   0  0  0  0  0  0  0  0  0  0  0  0
   -0.7247   -1.1167    0.0000 C   0  0  0  0  0  0  0  0  0  0  0  0
   -1.4392   -1.5292    0.0000 O   0  0  0  0  0  0  0  0  0  0  0  0
   -0.0103   -1.5292    0.0000 O   0  0  0  0  0  0  0  0  0  0  0  0
  1  2  1  0      
  2  3  2  0      
  2  4  1  0      
  4  5  1  0      
  5  6  1  0      
  6  7  2  0      
  7  8  1  0      
  8  9  1  0      
  9 10  1  0      
 10 11  1  0      
  6 11  1  0      
  9 12  1  0      
 12 13  1  0      
 12 14  1  0      
  8 14  1  0      
 14 15  2  0      
  7 16  1  0      
 16 17  1  0      
 16 18  2  0      
M  END
>  <Bioactivity>
7-Aminocephalosporanic acid is used for synthesis of cephalosporin antibiotics and intermediates.

>  <CAS>
957-68-6

>  <Col>
10

>  <Formula>
C10H12N2O5S

>  <ID>
T0989

>  <Index>
139

>  <MOLENAME>
7-Aminocephalosporanic acid

>  <MolWt>
272.28

>  <Pathways>
Microbiology & Virology

>  <Plate>
PLATE 002

>  <QR code>
1152411563

>  <Receptor>
Others

>  <Reference>
1. Wang S, et al. Ind Eng Chem Res, 2005, 44 (10), 3783?3787

>  <Row>
F

>  <SMILES>
CC(=O)OCC1=C(N2C(SC1)C(N)C2=O)C(O)=O

>  <Target>
Antibiotic

>  <Weight>
10.4mg

$$$$
Lab-1.sdf
  ChemDraw05232018482D

 64 67  0  0  0  0  0  0  0  0999 V2000
    0.7145   -0.7152    0.0000 C   0  0  0  0  0  0  0  0  0  0  0  0
    0.7145    0.1097    0.0000 C   0  0  0  0  0  0  0  0  0  0  0  0
    0.0000    0.5222    0.0000 C   0  0  0  0  0  0  0  0  0  0  0  0
    0.0000   -0.3027    0.0000 O   0  0  0  0  0  0  0  0  0  0  0  0
   -0.7144   -0.7152    0.0000 C   0  0  0  0  0  0  0  0  0  0  0  0
   -0.7144   -1.5402    0.0000 O   0  0  0  0  0  0  0  0  0  0  0  0
   -1.4289   -0.3027    0.0000 C   0  0  0  0  0  0  0  0  0  0  0  0
   -1.4289    0.5222    0.0000 C   0  0  0  0  0  0  0  0  0  0  0  0
   -0.7144    0.9347    0.0000 O   0  0  0  0  0  0  0  0  0  0  0  0
   -2.1434    0.9347    0.0000 C   0  0  0  0  0  0  0  0  0  0  0  0
   -2.4789    0.1810    0.0000 C   0  0  0  0  0  0  0  0  0  0  0  0
   -2.1434    1.7597    0.0000 C   0  0  0  0  0  0  0  0  0  0  0  0
   -2.8579    1.3472    0.0000 O   0  0  0  0  0  0  0  0  0  0  0  0
   -2.8579    0.5222    0.0000 C   0  0  0  0  0  0  0  0  0  0  0  0
   -2.1434    0.1097    0.0000 O   0  0  0  0  0  0  0  0  0  0  0  0
   -2.1434   -0.7152    0.0000 C   0  0  0  0  0  0  0  0  0  0  0  0
   -1.4289   -1.1277    0.0000 C   0  0  0  0  0  0  0  0  0  0  0  0
   -2.8579   -1.1277    0.0000 C   0  0  0  0  0  0  0  0  0  0  0  0
   -2.8579   -1.9527    0.0000 O   0  0  0  0  0  0  0  0  0  0  0  0
   -2.1434   -2.3652    0.0000 C   0  0  0  0  0  0  0  0  0  0  0  0
   -2.1434   -3.1902    0.0000 C   0  0  0  0  0  0  0  0  0  0  0  0
   -1.4289   -3.6027    0.0000 C   0  0  0  0  0  0  0  0  0  0  0  0
   -1.9592   -4.2347    0.0000 C   0  0  0  0  0  0  0  0  0  0  0  0
   -0.8986   -4.2347    0.0000 O   0  0  0  0  0  0  0  0  0  0  0  0
   -0.7144   -3.1902    0.0000 C   0  0  0  0  0  0  0  0  0  0  0  0
    0.0000   -3.6027    0.0000 O   0  0  0  0  0  0  0  0  0  0  0  0
   -0.7144   -2.3652    0.0000 C   0  0  0  0  0  0  0  0  0  0  0  0
    0.0000   -1.9527    0.0000 C   0  0  0  0  0  0  0  0  0  0  0  0
   -1.4289   -1.9527    0.0000 O   0  0  0  0  0  0  0  0  0  0  0  0
   -3.5723   -0.7152    0.0000 C   0  0  0  0  0  0  0  0  0  0  0  0
   -3.5723    0.1097    0.0000 C   0  0  0  0  0  0  0  0  0  0  0  0
   -4.2867    0.5222    0.0000 O   0  0  0  0  0  0  0  0  0  0  0  0
   -4.2867   -1.1277    0.0000 N   0  0  0  0  0  0  0  0  0  0  0  0
   -5.0012   -0.7152    0.0000 C   0  0  0  0  0  0  0  0  0  0  0  0
   -4.2867   -1.9527    0.0000 C   0  0  0  0  0  0  0  0  0  0  0  0
   -2.8579    2.1722    0.0000 C   0  0  0  0  0  0  0  0  0  0  0  0
   -3.5723    1.7597    0.0000 C   0  0  0  0  0  0  0  0  0  0  0  0
   -4.2867    2.1722    0.0000 C   0  0  0  0  0  0  0  0  0  0  0  0
   -5.0012    1.7597    0.0000 O   0  0  0  0  0  0  0  0  0  0  0  0
   -2.8579    2.9972    0.0000 C   0  0  0  0  0  0  0  0  0  0  0  0
   -2.1434    3.4097    0.0000 C   0  0  0  0  0  0  0  0  0  0  0  0
   -2.1434    4.2347    0.0000 C   0  0  0  0  0  0  0  0  0  0  0  0
   -1.4289    2.9972    0.0000 C   0  0  0  0  0  0  0  0  0  0  0  0
   -1.4289    2.1722    0.0000 O   0  0  0  0  0  0  0  0  0  0  0  0
   -0.7144    3.4097    0.0000 C   0  0  0  0  0  0  0  0  0  0  0  0
    0.0000    2.9972    0.0000 C   0  0  0  0  0  0  0  0  0  0  0  0
    0.0000    2.1722    0.0000 C   0  0  0  0  0  0  0  0  0  0  0  0
   -0.7144    1.7597    0.0000 C   0  0  0  0  0  0  0  0  0  0  0  0
    0.7145    1.7597    0.0000 C   0  0  0  0  0  0  0  0  0  0  0  0
    0.7145    0.9347    0.0000 C   0  0  0  0  0  0  0  0  0  0  0  0
    1.4290    0.5222    0.0000 C   0  0  0  0  0  0  0  0  0  0  0  0
    2.1434    0.9347    0.0000 O   0  0  0  0  0  0  0  0  0  0  0  0
    2.8579    0.5222    0.0000 C   0  0  0  0  0  0  0  0  0  0  0  0
    3.5724    0.9347    0.0000 O   0  0  0  0  0  0  0  0  0  0  0  0
    4.2868    0.5222    0.0000 C   0  0  0  0  0  0  0  0  0  0  0  0
    5.0012    0.9347    0.0000 C   0  0  0  0  0  0  0  0  0  0  0  0
    4.2868   -0.3027    0.0000 C   0  0  0  0  0  0  0  0  0  0  0  0
    5.0012   -0.7152    0.0000 O   0  0  0  0  0  0  0  0  0  0  0  0
    3.5724   -0.7152    0.0000 C   0  0  0  0  0  0  0  0  0  0  0  0
    3.5724   -1.5402    0.0000 O   0  0  0  0  0  0  0  0  0  0  0  0
    2.8579   -1.9527    0.0000 C   0  0  0  0  0  0  0  0  0  0  0  0
    2.8579   -0.3027    0.0000 C   0  0  0  0  0  0  0  0  0  0  0  0
    2.1434   -0.7152    0.0000 O   0  0  0  0  0  0  0  0  0  0  0  0
    1.4290   -0.3027    0.0000 C   0  0  0  0  0  0  0  0  0  0  0  0
  1  2  1  0      
  2  3  1  0      
  3  4  1  0      
  4  5  1  0      
  5  6  2  0      
  5  7  1  0      
  7  8  1  0      
  8  9  1  0      
  8 10  1  0      
 10 11  1  0      
 10 12  1  0      
 12 13  1  0      
 13 14  1  0      
 14 15  1  0      
 15 16  1  0      
 16 17  1  0      
 16 18  1  0      
 18 19  1  0      
 19 20  1  0      
 20 21  1  0      
 21 22  1  0      
 22 23  1  0      
 22 24  1  0      
 22 25  1  0      
 25 26  1  0      
 25 27  1  0      
 27 28  1  0      
 27 29  1  0      
 20 29  1  0      
 18 30  1  0      
 30 31  1  0      
 14 31  1  0      
 31 32  1  0      
 30 33  1  0      
 33 34  1  0      
 33 35  1  0      
 12 36  1  0      
 36 37  1  0      
 37 38  1  0      
 38 39  2  0      
 36 40  1  0      
 40 41  1  0      
 41 42  1  0      
 41 43  1  0      
 43 44  2  0      
 45 43  1  4      
 45 46  2  0      
 46 47  1  0      
 47 48  1  0      
 47 49  2  0      
 49 50  1  4      
  3 50  1  0      
 50 51  1  0      
 51 52  1  0      
 52 53  1  0      
 53 54  1  0      
 54 55  1  0      
 55 56  1  0      
 55 57  1  0      
 57 58  1  0      
 57 59  1  0      
 59 60  1  0      
 60 61  1  0      
 59 62  1  0      
 53 62  1  0      
 62 63  1  0      
 63 64  1  0      
M  END
>  <Bioactivity>
Tylosin (Fradizine; Tylocine; Tylosin A) is a broad spectrum antibiotic against Gram-positive organisms and a limited range of Gram-negative organisms.

>  <CAS>
1401-69-0

>  <Col>
11

>  <Formula>
C46H77NO17

>  <ID>
T1003

>  <Index>
140

>  <MOLENAME>
Tylosin

>  <MolWt>
916.1

>  <Pathways>
Microbiology & Virology

>  <Plate>
PLATE 002

>  <QR code>
1152411564

>  <Receptor>
Others

>  <Reference>
1. Kolanovi? BS, et al. J Immunoassay Immunochem. 2014;35(1):37-47. 

>  <Row>
F

>  <SMILES>
CCC1OC(=O)CC(O)C(C)C(OC2OC(C)C(OC3CC(C)(O)C(O)C(C)O3)C(C2O)N(C)C)C(CC=O)CC(C)C(=O)C=CC(C)=CC1COC1OC(C)C(O)C(OC)C1OC

>  <Target>
Antibacterial

>  <Weight>
10.2mg

$$$$
Lab-1.sdf
  ChemDraw05232018482D

 20 23  0  0  0  0  0  0  0  0999 V2000
   -2.1308    1.2924    0.0000 C   0  0  0  0  0  0  0  0  0  0  0  0
   -1.7709    0.5500    0.0000 C   0  0  0  0  0  0  0  0  0  0  0  0
   -1.2391    1.1807    0.0000 C   0  0  0  0  0  0  0  0  0  0  0  0
   -0.4270    1.0355    0.0000 C   0  0  0  0  0  0  0  0  0  0  0  0
   -0.1467    0.2596    0.0000 C   0  0  0  0  0  0  0  0  0  0  0  0
   -0.6785   -0.3712    0.0000 C   0  0  0  0  0  0  0  0  0  0  0  0
   -0.3982   -1.1471    0.0000 C   0  0  0  0  0  0  0  0  0  0  0  0
    0.4139   -1.2924    0.0000 C   0  0  0  0  0  0  0  0  0  0  0  0
    0.9457   -0.6617    0.0000 C   0  0  0  0  0  0  0  0  0  0  0  0
    0.6654    0.1144    0.0000 C   0  0  0  0  0  0  0  0  0  0  0  0
    1.1973    0.7451    0.0000 C   0  0  0  0  0  0  0  0  0  0  0  0
    2.0094    0.5999    0.0000 C   0  0  0  0  0  0  0  0  0  0  0  0
    2.2898   -0.1762    0.0000 C   0  0  0  0  0  0  0  0  0  0  0  0
    3.1019   -0.3214    0.0000 O   0  0  0  0  0  0  0  0  0  0  0  0
    1.7579   -0.8069    0.0000 C   0  0  0  0  0  0  0  0  0  0  0  0
   -1.4906   -0.2260    0.0000 C   0  0  0  0  0  0  0  0  0  0  0  0
   -2.1420   -0.7324    0.0000 C   0  0  0  0  0  0  0  0  0  0  0  0
   -2.8249   -0.2694    0.0000 C   0  0  0  0  0  0  0  0  0  0  0  0
   -2.5956    0.5232    0.0000 C   0  0  0  0  0  0  0  0  0  0  0  0
   -3.1019    1.1745    0.0000 O   0  0  0  0  0  0  0  0  0  0  0  0
  1  2  1  0      
  2  3  1  0      
  3  4  1  0      
  4  5  1  0      
  5  6  1  0      
  6  7  1  0      
  7  8  1  0      
  8  9  1  0      
  9 10  2  0      
  5 10  1  0      
 10 11  1  0      
 11 12  2  0      
 12 13  1  0      
 13 14  1  0      
 13 15  2  0      
  9 15  1  0      
  6 16  1  0      
  2 16  1  0      
 16 17  1  0      
 17 18  1  0      
 18 19  1  0      
  2 19  1  0      
 19 20  2  0      
M  END
>  <Bioactivity>
Estrone is an estrogenic hormone.

>  <CAS>
53-16-7

>  <Col>
2

>  <Formula>
C18H22O2

>  <ID>
T1009

>  <Index>
141

>  <MOLENAME>
Aquacrine

>  <MolWt>
270.37

>  <Pathways>
Endocrinology/ Hormones

>  <Plate>
PLATE 002

>  <QR code>
1152411552

>  <Receptor>
ER

>  <Reference>
1. Margeat E, et al. J Mol Biol. 2003 Feb 7;326(1):77-92.

>  <Row>
G

>  <SMILES>
CC12CCC3C(CCC4=C3C=CC(O)=C4)C1CCC2=O

>  <Target>
Estrogen/Progestogen Receptor agonist

>  <Weight>
10.1mg

$$$$
Lab-1.sdf
  ChemDraw05232018482D

 51 53  0  0  0  0  0  0  0  0999 V2000
    0.0001    3.6276    0.0000 C   0  0  0  0  0  0  0  0  0  0  0  0
   -0.7144    3.2151    0.0000 C   0  0  0  0  0  0  0  0  0  0  0  0
   -0.7144    2.3901    0.0000 C   0  0  0  0  0  0  0  0  0  0  0  0
    0.0001    2.8026    0.0000 O   0  0  0  0  0  0  0  0  0  0  0  0
    0.7145    2.3901    0.0000 C   0  0  0  0  0  0  0  0  0  0  0  0
    1.4289    2.8026    0.0000 O   0  0  0  0  0  0  0  0  0  0  0  0
    0.7145    1.5651    0.0000 C   0  0  0  0  0  0  0  0  0  0  0  0
    1.5349    1.6513    0.0000 C   0  0  0  0  0  0  0  0  0  0  0  0
    0.0001    1.1526    0.0000 C   0  0  0  0  0  0  0  0  0  0  0  0
    0.7145    0.7401    0.0000 O   0  0  0  0  0  0  0  0  0  0  0  0
    1.4289    1.1526    0.0000 C   0  0  0  0  0  0  0  0  0  0  0  0
    1.4289    1.9776    0.0000 C   0  0  0  0  0  0  0  0  0  0  0  0
    2.1434    2.3901    0.0000 C   0  0  0  0  0  0  0  0  0  0  0  0
    1.6131    3.0221    0.0000 C   0  0  0  0  0  0  0  0  0  0  0  0
    2.6737    3.0221    0.0000 O   0  0  0  0  0  0  0  0  0  0  0  0
    2.3915    3.7973    0.0000 C   0  0  0  0  0  0  0  0  0  0  0  0
    2.8579    1.9776    0.0000 C   0  0  0  0  0  0  0  0  0  0  0  0
    3.5723    2.3901    0.0000 O   0  0  0  0  0  0  0  0  0  0  0  0
    2.8579    1.1526    0.0000 C   0  0  0  0  0  0  0  0  0  0  0  0
    3.5723    0.7401    0.0000 C   0  0  0  0  0  0  0  0  0  0  0  0
    2.1434    0.7401    0.0000 O   0  0  0  0  0  0  0  0  0  0  0  0
    0.0001    0.3276    0.0000 C   0  0  0  0  0  0  0  0  0  0  0  0
    0.7145   -0.0848    0.0000 C   0  0  0  0  0  0  0  0  0  0  0  0
   -0.7144   -0.0848    0.0000 C   0  0  0  0  0  0  0  0  0  0  0  0
   -0.7144   -0.9098    0.0000 O   0  0  0  0  0  0  0  0  0  0  0  0
    0.0001   -1.3223    0.0000 C   0  0  0  0  0  0  0  0  0  0  0  0
    0.7145   -0.9098    0.0000 O   0  0  0  0  0  0  0  0  0  0  0  0
    1.4289   -1.3223    0.0000 C   0  0  0  0  0  0  0  0  0  0  0  0
    2.1434   -0.9098    0.0000 C   0  0  0  0  0  0  0  0  0  0  0  0
    1.4289   -2.1473    0.0000 C   0  0  0  0  0  0  0  0  0  0  0  0
    0.7145   -2.5598    0.0000 C   0  0  0  0  0  0  0  0  0  0  0  0
    0.0001   -2.1473    0.0000 C   0  0  0  0  0  0  0  0  0  0  0  0
   -0.7144   -2.5598    0.0000 O   0  0  0  0  0  0  0  0  0  0  0  0
    0.7145   -3.3848    0.0000 N   0  0  0  0  0  0  0  0  0  0  0  0
    1.4289   -3.7973    0.0000 C   0  0  0  0  0  0  0  0  0  0  0  0
    0.0001   -3.7973    0.0000 C   0  0  0  0  0  0  0  0  0  0  0  0
   -1.4289    0.3276    0.0000 C   0  0  0  0  0  0  0  0  0  0  0  0
   -1.1467   -0.4475    0.0000 C   0  0  0  0  0  0  0  0  0  0  0  0
   -1.7110   -0.4475    0.0000 O   0  0  0  0  0  0  0  0  0  0  0  0
   -2.1433   -0.0848    0.0000 C   0  0  0  0  0  0  0  0  0  0  0  0
   -2.8578    0.3276    0.0000 C   0  0  0  0  0  0  0  0  0  0  0  0
   -3.5723   -0.0848    0.0000 C   0  0  0  0  0  0  0  0  0  0  0  0
   -2.8578    1.1526    0.0000 C   0  0  0  0  0  0  0  0  0  0  0  0
   -3.5723    1.5651    0.0000 O   0  0  0  0  0  0  0  0  0  0  0  0
   -2.1433    1.5651    0.0000 C   0  0  0  0  0  0  0  0  0  0  0  0
   -1.4289    1.1526    0.0000 C   0  0  0  0  0  0  0  0  0  0  0  0
   -2.1433    2.3901    0.0000 C   0  0  0  0  0  0  0  0  0  0  0  0
   -2.8578    2.8026    0.0000 O   0  0  0  0  0  0  0  0  0  0  0  0
   -1.4289    2.8026    0.0000 C   0  0  0  0  0  0  0  0  0  0  0  0
   -1.8162    3.5310    0.0000 C   0  0  0  0  0  0  0  0  0  0  0  0
   -1.0415    3.5310    0.0000 O   0  0  0  0  0  0  0  0  0  0  0  0
  1  2  1  0      
  2  3  1  0      
  3  4  1  0      
  4  5  1  0      
  5  6  2  0      
  5  7  1  0      
  7  8  1  0      
  7  9  1  0      
  9 10  1  0      
 10 11  1  0      
 11 12  1  0      
 12 13  1  0      
 13 14  1  0      
 13 15  1  0      
 15 16  1  0      
 13 17  1  0      
 17 18  1  0      
 17 19  1  0      
 19 20  1  0      
 19 21  1  0      
 11 21  1  0      
  9 22  1  0      
 22 23  1  0      
 22 24  1  0      
 24 25  1  0      
 25 26  1  0      
 26 27  1  0      
 27 28  1  0      
 28 29  1  0      
 28 30  1  0      
 30 31  1  0      
 31 32  1  0      
 26 32  1  0      
 32 33  1  0      
 31 34  1  0      
 34 35  1  0      
 34 36  1  0      
 24 37  1  0      
 37 38  1  0      
 37 39  1  0      
 37 40  1  0      
 40 41  1  0      
 41 42  1  0      
 41 43  1  0      
 43 44  2  0      
 43 45  1  0      
 45 46  1  0      
 45 47  1  0      
 47 48  1  0      
 47 49  1  0      
  3 49  1  0      
 49 50  1  0      
 49 51  1  0      
M  END
>  <Bioactivity>
Erythromycin, an oral macrolide antibiotic produced by Streptomyces erythreus, reversibly binds to the 50S ribosome of bacteria, and inhibits protein synthesis.

>  <CAS>
114-07-8

>  <Col>
3

>  <Formula>
C37H67NO13

>  <ID>
T1032

>  <Index>
142

>  <MOLENAME>
Erythromycin

>  <MolWt>
733.93

>  <Pathways>
Microbiology & Virology

>  <Plate>
PLATE 002

>  <QR code>
1152411551

>  <Receptor>
50S ribosomal protein; 23S rRNA

>  <Reference>
1. Moazed D, Noller HF. Biochimie. 1987 Aug;69(8):879-84.

>  <Row>
G

>  <SMILES>
CCC1OC(=O)C(C)C(OC2CC(C)(OC)C(O)C(C)O2)C(C)C(OC2OC(C)CC(C2O)N(C)C)C(C)(O)CC(C)C(=O)C(C)C(O)C1(C)O

>  <Target>
Antibiotic

>  <Weight>
10.2mg

$$$$
Lab-1.sdf
  ChemDraw05232018482D

 47 51  0  0  0  0  0  0  0  0999 V2000
   -0.8886   -0.9974    0.0000 C   0  0  0  0  0  0  0  0  0  0  0  0
   -1.4406   -0.3843    0.0000 C   0  0  0  0  0  0  0  0  0  0  0  0
   -1.1857    0.4002    0.0000 C   0  0  0  0  0  0  0  0  0  0  0  0
   -1.0995    1.2207    0.0000 C   0  0  0  0  0  0  0  0  0  0  0  0
   -0.2925    1.3922    0.0000 C   0  0  0  0  0  0  0  0  0  0  0  0
    0.1199    0.6777    0.0000 C   0  0  0  0  0  0  0  0  0  0  0  0
   -0.4320    0.0646    0.0000 O   0  0  0  0  0  0  0  0  0  0  0  0
    0.9404    0.5915    0.0000 C   0  0  0  0  0  0  0  0  0  0  0  0
    0.7689   -0.2154    0.0000 C   0  0  0  0  0  0  0  0  0  0  0  0
    0.9404    1.4165    0.0000 C   0  0  0  0  0  0  0  0  0  0  0  0
    1.7250    1.6714    0.0000 C   0  0  0  0  0  0  0  0  0  0  0  0
    2.2099    1.0040    0.0000 C   0  0  0  0  0  0  0  0  0  0  0  0
    2.6224    1.7185    0.0000 C   0  0  0  0  0  0  0  0  0  0  0  0
    3.4474    1.7185    0.0000 C   0  0  0  0  0  0  0  0  0  0  0  0
    3.8599    2.4329    0.0000 O   0  0  0  0  0  0  0  0  0  0  0  0
    3.8599    1.0040    0.0000 C   0  0  0  0  0  0  0  0  0  0  0  0
    4.6849    1.0040    0.0000 C   0  0  0  0  0  0  0  0  0  0  0  0
    3.4474    0.2895    0.0000 C   0  0  0  0  0  0  0  0  0  0  0  0
    2.6224    0.2895    0.0000 O   0  0  0  0  0  0  0  0  0  0  0  0
    3.8599   -0.4248    0.0000 C   0  0  0  0  0  0  0  0  0  0  0  0
    3.4474   -1.1393    0.0000 C   0  0  0  0  0  0  0  0  0  0  0  0
    4.6849   -0.4248    0.0000 C   0  0  0  0  0  0  0  0  0  0  0  0
    5.0974    0.2895    0.0000 O   0  0  0  0  0  0  0  0  0  0  0  0
    5.9223    0.2895    0.0000 C   0  0  0  0  0  0  0  0  0  0  0  0
    5.0974   -1.1393    0.0000 C   0  0  0  0  0  0  0  0  0  0  0  0
    4.6849   -1.8538    0.0000 C   0  0  0  0  0  0  0  0  0  0  0  0
    5.9223   -1.1393    0.0000 C   0  0  0  0  0  0  0  0  0  0  0  0
    6.3348   -1.8538    0.0000 O   0  0  0  0  0  0  0  0  0  0  0  0
    6.3348   -0.4248    0.0000 O   0  0  0  0  0  0  0  0  0  0  0  0
    1.7250    0.3366    0.0000 O   0  0  0  0  0  0  0  0  0  0  0  0
   -1.9927    0.5717    0.0000 C   0  0  0  0  0  0  0  0  0  0  0  0
   -2.6058    0.0197    0.0000 O   0  0  0  0  0  0  0  0  0  0  0  0
   -3.3202    0.4322    0.0000 C   0  0  0  0  0  0  0  0  0  0  0  0
   -3.1487    1.2392    0.0000 C   0  0  0  0  0  0  0  0  0  0  0  0
   -2.3282    1.3254    0.0000 C   0  0  0  0  0  0  0  0  0  0  0  0
   -1.9157    2.0399    0.0000 C   0  0  0  0  0  0  0  0  0  0  0  0
   -4.0739    0.0966    0.0000 C   0  0  0  0  0  0  0  0  0  0  0  0
   -4.1601   -0.7237    0.0000 O   0  0  0  0  0  0  0  0  0  0  0  0
   -4.9138   -1.0593    0.0000 C   0  0  0  0  0  0  0  0  0  0  0  0
   -4.4525   -1.7433    0.0000 O   0  0  0  0  0  0  0  0  0  0  0  0
   -5.5072   -1.6324    0.0000 C   0  0  0  0  0  0  0  0  0  0  0  0
   -5.3077   -2.4329    0.0000 O   0  0  0  0  0  0  0  0  0  0  0  0
   -5.5812   -0.5744    0.0000 C   0  0  0  0  0  0  0  0  0  0  0  0
   -6.3348   -0.9099    0.0000 C   0  0  0  0  0  0  0  0  0  0  0  0
   -5.4949    0.2460    0.0000 C   0  0  0  0  0  0  0  0  0  0  0  0
   -4.7413    0.5816    0.0000 C   0  0  0  0  0  0  0  0  0  0  0  0
   -4.6551    1.4020    0.0000 C   0  0  0  0  0  0  0  0  0  0  0  0
  1  2  1  0      
  2  3  1  0      
  3  4  1  0      
  4  5  1  0      
  5  6  1  0      
  6  7  1  0      
  3  7  1  0      
  6  8  1  0      
  8  9  1  0      
  8 10  1  0      
 10 11  1  0      
 11 12  1  0      
 12 13  1  0      
 13 14  1  0      
 14 15  1  0      
 14 16  1  0      
 16 17  1  0      
 16 18  1  0      
 18 19  1  0      
 12 19  1  0      
 18 20  1  0      
 20 21  1  0      
 20 22  1  0      
 22 23  1  0      
 23 24  1  0      
 22 25  1  0      
 25 26  1  0      
 25 27  1  0      
 27 28  1  0      
 27 29  2  0      
 12 30  1  0      
  8 30  1  0      
  3 31  1  0      
 31 32  1  0      
 32 33  1  0      
 33 34  1  0      
 34 35  1  0      
 31 35  1  0      
 35 36  1  0      
 33 37  1  0      
 37 38  1  0      
 38 39  1  0      
 39 40  1  0      
 39 41  1  0      
 41 42  1  0      
 39 43  1  0      
 43 44  1  0      
 43 45  1  0      
 45 46  1  0      
 37 46  1  0      
 46 47  1  0      
M  END
>  <Bioactivity>
Sodium Monensin, isolated from Streptomyces cinnamonensis, is a well-known representative of naturally polyether ionophore antibiotics.

>  <CAS>
22373-78-0

>  <Col>
4

>  <Formula>
C36H61NaO11

>  <ID>
T1033

>  <Index>
143

>  <MOLENAME>
Monensin sodium salt

>  <MolWt>
692.85

>  <Pathways>
Microbiology & Virology

>  <Plate>
PLATE 002

>  <QR code>
1152411550

>  <Receptor>
Others

>  <Reference>
1. Pinkerton M, et al. J Mol Biol, 1970, 49(3), 533-546.

>  <Row>
G

>  <SMILES>
CCC1(CCC(O1)C1(C)CCC2(CC(O)C(C)C(O2)C(C)C(OC)C(C)C(O)=O)O1)C1OC(CC1C)C1OC(O)(CO)C(C)CC1C

>  <Target>
Antibiotic

>  <Weight>
10.2mg

$$$$
Lab-1.sdf
  ChemDraw05232018482D

 58 63  0  0  0  0  0  0  0  0999 V2000
    5.0866    0.8071    0.0000 C   0  0  0  0  0  0  0  0  0  0  0  0
    4.2705    0.6861    0.0000 C   0  0  0  0  0  0  0  0  0  0  0  0
    3.7577    1.3323    0.0000 O   0  0  0  0  0  0  0  0  0  0  0  0
    3.9673   -0.0811    0.0000 O   0  0  0  0  0  0  0  0  0  0  0  0
    4.4801   -0.7273    0.0000 C   0  0  0  0  0  0  0  0  0  0  0  0
    4.9716   -0.0647    0.0000 C   0  0  0  0  0  0  0  0  0  0  0  0
    5.6342   -0.5562    0.0000 O   0  0  0  0  0  0  0  0  0  0  0  0
    5.1428   -1.2188    0.0000 C   0  0  0  0  0  0  0  0  0  0  0  0
    5.0484   -2.0384    0.0000 C   0  0  0  0  0  0  0  0  0  0  0  0
    4.2915   -2.3665    0.0000 C   0  0  0  0  0  0  0  0  0  0  0  0
    4.1971   -3.1861    0.0000 O   0  0  0  0  0  0  0  0  0  0  0  0
    3.6289   -1.8750    0.0000 C   0  0  0  0  0  0  0  0  0  0  0  0
    3.6269   -2.7000    0.0000 C   0  0  0  0  0  0  0  0  0  0  0  0
    3.7232   -1.0554    0.0000 C   0  0  0  0  0  0  0  0  0  0  0  0
    3.1735   -0.3848    0.0000 C   0  0  0  0  0  0  0  0  0  0  0  0
    3.5883    0.3282    0.0000 O   0  0  0  0  0  0  0  0  0  0  0  0
    3.1781    1.0440    0.0000 C   0  0  0  0  0  0  0  0  0  0  0  0
    2.3531    1.0467    0.0000 O   0  0  0  0  0  0  0  0  0  0  0  0
    3.5928    1.7572    0.0000 C   0  0  0  0  0  0  0  0  0  0  0  0
    3.1826    2.4730    0.0000 C   0  0  0  0  0  0  0  0  0  0  0  0
    3.5974    3.1861    0.0000 C   0  0  0  0  0  0  0  0  0  0  0  0
    4.4224    3.1835    0.0000 C   0  0  0  0  0  0  0  0  0  0  0  0
    4.8326    2.4677    0.0000 C   0  0  0  0  0  0  0  0  0  0  0  0
    4.4178    1.7545    0.0000 C   0  0  0  0  0  0  0  0  0  0  0  0
    2.3129   -0.2376    0.0000 C   0  0  0  0  0  0  0  0  0  0  0  0
    2.5764    0.5441    0.0000 O   0  0  0  0  0  0  0  0  0  0  0  0
    1.5447    0.1629    0.0000 C   0  0  0  0  0  0  0  0  0  0  0  0
    0.7969   -0.2312    0.0000 C   0  0  0  0  0  0  0  0  0  0  0  0
    0.0834    0.1829    0.0000 O   0  0  0  0  0  0  0  0  0  0  0  0
   -0.6320   -0.2278    0.0000 C   0  0  0  0  0  0  0  0  0  0  0  0
   -0.6339   -1.0528    0.0000 O   0  0  0  0  0  0  0  0  0  0  0  0
   -1.3455    0.1862    0.0000 C   0  0  0  0  0  0  0  0  0  0  0  0
   -1.3436    1.0112    0.0000 O   0  0  0  0  0  0  0  0  0  0  0  0
   -2.0609   -0.2245    0.0000 C   0  0  0  0  0  0  0  0  0  0  0  0
   -2.7744    0.1896    0.0000 N   0  0  0  0  0  0  0  0  0  0  0  0
   -3.4899   -0.2211    0.0000 C   0  0  0  0  0  0  0  0  0  0  0  0
   -3.4918   -1.0461    0.0000 O   0  0  0  0  0  0  0  0  0  0  0  0
   -4.2034    0.1929    0.0000 O   0  0  0  0  0  0  0  0  0  0  0  0
   -4.9188   -0.2178    0.0000 C   0  0  0  0  0  0  0  0  0  0  0  0
   -5.6342   -0.6286    0.0000 C   0  0  0  0  0  0  0  0  0  0  0  0
   -5.3296    0.4975    0.0000 C   0  0  0  0  0  0  0  0  0  0  0  0
   -4.5080   -0.9332    0.0000 C   0  0  0  0  0  0  0  0  0  0  0  0
   -2.0629   -1.0495    0.0000 C   0  0  0  0  0  0  0  0  0  0  0  0
   -1.3494   -1.4637    0.0000 C   0  0  0  0  0  0  0  0  0  0  0  0
   -1.3513   -2.2887    0.0000 C   0  0  0  0  0  0  0  0  0  0  0  0
   -2.0667   -2.6995    0.0000 C   0  0  0  0  0  0  0  0  0  0  0  0
   -2.7802   -2.2853    0.0000 C   0  0  0  0  0  0  0  0  0  0  0  0
   -2.7783   -1.4603    0.0000 C   0  0  0  0  0  0  0  0  0  0  0  0
    0.8255   -1.0760    0.0000 C   0  0  0  0  0  0  0  0  0  0  0  0
    0.1082   -1.4836    0.0000 C   0  0  0  0  0  0  0  0  0  0  0  0
    1.5543   -1.5444    0.0000 C   0  0  0  0  0  0  0  0  0  0  0  0
    2.1090   -2.2187    0.0000 C   0  0  0  0  0  0  0  0  0  0  0  0
    1.6905   -2.9297    0.0000 O   0  0  0  0  0  0  0  0  0  0  0  0
    2.9507   -2.3731    0.0000 C   0  0  0  0  0  0  0  0  0  0  0  0
    3.1356   -3.1771    0.0000 O   0  0  0  0  0  0  0  0  0  0  0  0
    1.9913   -0.9245    0.0000 C   0  0  0  0  0  0  0  0  0  0  0  0
    2.4957   -1.5773    0.0000 C   0  0  0  0  0  0  0  0  0  0  0  0
    2.8084   -1.0387    0.0000 C   0  0  0  0  0  0  0  0  0  0  0  0
  1  2  1  0      
  2  3  2  0      
  2  4  1  0      
  4  5  1  0      
  5  6  1  0      
  6  7  1  0      
  7  8  1  0      
  5  8  1  0      
  8  9  1  0      
  9 10  1  0      
 10 11  1  0      
 10 12  1  0      
 12 13  1  0      
 12 14  1  0      
  5 14  1  0      
 14 15  1  0      
 15 16  1  0      
 16 17  1  0      
 17 18  2  0      
 17 19  1  0      
 19 20  2  0      
 20 21  1  0      
 21 22  2  0      
 22 23  1  0      
 23 24  2  0      
 19 24  1  0      
 15 25  1  0      
 25 26  1  0      
 25 27  1  0      
 27 28  1  0      
 28 29  1  0      
 29 30  1  0      
 30 31  2  0      
 30 32  1  0      
 32 33  1  0      
 32 34  1  0      
 34 35  1  0      
 35 36  1  0      
 36 37  2  0      
 36 38  1  0      
 38 39  1  0      
 39 40  1  0      
 39 41  1  0      
 39 42  1  0      
 34 43  1  0      
 43 44  2  0      
 44 45  1  0      
 45 46  2  0      
 46 47  1  0      
 47 48  2  0      
 43 48  1  0      
 28 49  1  0      
 49 50  1  0      
 49 51  2  0      
 51 52  1  0      
 52 53  1  0      
 52 54  1  0      
 12 54  1  0      
 54 55  2  0      
 51 56  1  0      
 25 56  1  0      
 56 57  1  0      
 56 58  1  0      
M  END
>  <Bioactivity>
Docetaxel is a clinically well established anti-mitotic chemotherapy medication used mainly for the treatment of breast, ovarian, and non-small cell lung Y. Docetaxel binds to microtubules reversibly 
with high affinity and has a maximum stoichiometry of one mole docetaxel per mole tubulin in microtubules.

>  <CAS>
114977-28-5

>  <Col>
5

>  <Formula>
C43H53NO14

>  <ID>
T1034

>  <Index>
144

>  <MOLENAME>
Docetaxel

>  <MolWt>
807.88

>  <Pathways>
Cell Cycle/Checkpoint

>  <Plate>
PLATE 002

>  <QR code>
1152411549

>  <Receptor>
Bcl-2; Tubulin chain

>  <Reference>
1. Matesanz R, et al. Chem Biol. 2008 Jun;15(6):573-85. 

>  <Row>
G

>  <SMILES>
CC(=O)OC12COC1CC(O)C1(C)C2C(OC(=O)C2=CC=CC=C2)C2(O)CC(OC(=O)C(O)C(NC(=O)OC(C)(C)C)C3=CC=CC=C3)C(C)=C(C(O)C1=O)C2(C)C

>  <Target>
Bcl-2 inhibitor; Microtubule Assosiated inhibitor

>  <Weight>
10.3mg

$$$$
Lab-1.sdf
  ChemDraw05232018482D

 43 47  0  0  0  0  0  0  0  0999 V2000
   -5.7157   -1.0312    0.0000 C   0  0  0  0  0  0  0  0  0  0  0  0
   -5.7157   -0.2062    0.0000 O   0  0  0  0  0  0  0  0  0  0  0  0
   -5.0012    0.2062    0.0000 C   0  0  0  0  0  0  0  0  0  0  0  0
   -5.0012    1.0312    0.0000 C   0  0  0  0  0  0  0  0  0  0  0  0
   -5.7157    1.4438    0.0000 O   0  0  0  0  0  0  0  0  0  0  0  0
   -4.2868    1.4438    0.0000 C   0  0  0  0  0  0  0  0  0  0  0  0
   -3.5723    1.0312    0.0000 C   0  0  0  0  0  0  0  0  0  0  0  0
   -3.5723    0.2062    0.0000 C   0  0  0  0  0  0  0  0  0  0  0  0
   -4.2868   -0.2062    0.0000 C   0  0  0  0  0  0  0  0  0  0  0  0
   -2.8579    1.4438    0.0000 C   0  0  0  0  0  0  0  0  0  0  0  0
   -2.8579    2.2687    0.0000 C   0  0  0  0  0  0  0  0  0  0  0  0
   -2.1434    2.6812    0.0000 C   0  0  0  0  0  0  0  0  0  0  0  0
   -2.1434    3.5062    0.0000 O   0  0  0  0  0  0  0  0  0  0  0  0
   -1.4290    2.2687    0.0000 C   0  0  0  0  0  0  0  0  0  0  0  0
   -0.7145    2.6812    0.0000 C   0  0  0  0  0  0  0  0  0  0  0  0
   -0.7145    3.5062    0.0000 O   0  0  0  0  0  0  0  0  0  0  0  0
    0.0000    2.2687    0.0000 C   0  0  0  0  0  0  0  0  0  0  0  0
    0.0000    1.4438    0.0000 C   0  0  0  0  0  0  0  0  0  0  0  0
    0.7145    1.0312    0.0000 O   0  0  0  0  0  0  0  0  0  0  0  0
    0.7145    0.2062    0.0000 C   0  0  0  0  0  0  0  0  0  0  0  0
    1.4289   -0.2062    0.0000 O   0  0  0  0  0  0  0  0  0  0  0  0
    1.4289   -1.0312    0.0000 C   0  0  0  0  0  0  0  0  0  0  0  0
    2.1434   -1.4437    0.0000 C   0  0  0  0  0  0  0  0  0  0  0  0
    2.8578   -1.0312    0.0000 O   0  0  0  0  0  0  0  0  0  0  0  0
    3.5723   -1.4437    0.0000 C   0  0  0  0  0  0  0  0  0  0  0  0
    4.2868   -1.0312    0.0000 O   0  0  0  0  0  0  0  0  0  0  0  0
    5.0013   -1.4437    0.0000 C   0  0  0  0  0  0  0  0  0  0  0  0
    5.7157   -1.0312    0.0000 C   0  0  0  0  0  0  0  0  0  0  0  0
    5.0013   -2.2687    0.0000 C   0  0  0  0  0  0  0  0  0  0  0  0
    5.7157   -2.6812    0.0000 O   0  0  0  0  0  0  0  0  0  0  0  0
    4.2868   -2.6812    0.0000 C   0  0  0  0  0  0  0  0  0  0  0  0
    4.2868   -3.5062    0.0000 O   0  0  0  0  0  0  0  0  0  0  0  0
    3.5723   -2.2687    0.0000 C   0  0  0  0  0  0  0  0  0  0  0  0
    2.8578   -2.6812    0.0000 O   0  0  0  0  0  0  0  0  0  0  0  0
    0.7145   -1.4437    0.0000 C   0  0  0  0  0  0  0  0  0  0  0  0
    0.7145   -2.2687    0.0000 O   0  0  0  0  0  0  0  0  0  0  0  0
    0.0000   -1.0312    0.0000 C   0  0  0  0  0  0  0  0  0  0  0  0
   -0.7145   -1.4437    0.0000 O   0  0  0  0  0  0  0  0  0  0  0  0
    0.0000   -0.2062    0.0000 C   0  0  0  0  0  0  0  0  0  0  0  0
   -0.7145    0.2062    0.0000 O   0  0  0  0  0  0  0  0  0  0  0  0
   -0.7145    1.0312    0.0000 C   0  0  0  0  0  0  0  0  0  0  0  0
   -1.4290    1.4438    0.0000 C   0  0  0  0  0  0  0  0  0  0  0  0
   -2.1434    1.0312    0.0000 O   0  0  0  0  0  0  0  0  0  0  0  0
  1  2  1  0      
  2  3  1  0      
  3  4  2  0      
  4  5  1  0      
  4  6  1  0      
  6  7  2  0      
  7  8  1  0      
  8  9  2  0      
  3  9  1  0      
  7 10  1  0      
 10 11  1  0      
 11 12  1  0      
 12 13  2  0      
 12 14  1  0      
 14 15  2  0      
 15 16  1  0      
 15 17  1  0      
 17 18  2  0      
 18 19  1  0      
 19 20  1  0      
 20 21  1  0      
 21 22  1  0      
 22 23  1  0      
 23 24  1  0      
 24 25  1  0      
 25 26  1  0      
 26 27  1  0      
 27 28  1  0      
 27 29  1  0      
 29 30  1  0      
 29 31  1  0      
 31 32  1  0      
 31 33  1  0      
 25 33  1  0      
 33 34  1  0      
 22 35  1  0      
 35 36  1  0      
 35 37  1  0      
 37 38  1  0      
 37 39  1  0      
 20 39  1  0      
 39 40  1  0      
 18 41  1  0      
 41 42  2  0      
 14 42  1  0      
 42 43  1  0      
 10 43  1  0      
M  END
>  <Bioactivity>
Hesperidin is a flavanone glycoside found abundantly in citrus fruits.

>  <CAS>
520-26-3

>  <Col>
6

>  <Formula>
C28H34O15

>  <ID>
T1035

>  <Index>
145

>  <MOLENAME>
Hesperidin

>  <MolWt>
610.56

>  <Pathways>
Others

>  <Plate>
PLATE 002

>  <QR code>
1152411548

>  <Receptor>
Others

>  <Reference>
1. Inderjit, Dakshini KM. J Chem Ecol. 1991 Aug;17(8):1585-91. 

>  <Row>
G

>  <SMILES>
COC1=C(O)C=C(C=C1)C1CC(=O)C2=C(O)C=C(OC3OC(COC4OC(C)C(O)C(O)C4O)C(O)C(O)C3O)C=C2O1

>  <Target>
Others

>  <Weight>
10.2mg

$$$$
Lab-1.sdf
  ChemDraw05232018482D

 93 98  0  0  0  0  0  0  0  0999 V2000
   -8.2202    0.8518    0.0000 Co  0  1  0  0  0  0  0  0  0  0  0  0
   -7.3952    0.8518    0.0000 C   0  5  0  0  0  0  0  0  0  0  0  0
   -6.5702    0.8518    0.0000 N   0  0  0  0  0  0  0  0  0  0  0  0
    2.3366   -2.5895    0.0000 C   0  0  0  0  0  0  0  0  0  0  0  0
    3.0902   -2.2539    0.0000 C   0  0  0  0  0  0  0  0  0  0  0  0
    3.1764   -1.4335    0.0000 C   0  0  0  0  0  0  0  0  0  0  0  0
    2.5091   -0.9485    0.0000 N   0  0  0  0  0  0  0  0  0  0  0  0
    2.5953   -0.1281    0.0000 C   0  0  0  0  0  0  0  0  0  0  0  0
    3.3489    0.2075    0.0000 O   0  0  0  0  0  0  0  0  0  0  0  0
    1.9279    0.3569    0.0000 C   0  0  0  0  0  0  0  0  0  0  0  0
    2.0141    1.1773    0.0000 C   0  0  0  0  0  0  0  0  0  0  0  0
    1.3467    1.6623    0.0000 C   0  0  0  0  0  0  0  0  0  0  0  0
    0.9342    0.9478    0.0000 C   0  0  0  0  0  0  0  0  0  0  0  0
    1.8987    2.2754    0.0000 C   0  0  0  0  0  0  0  0  0  0  0  0
    2.7192    2.1891    0.0000 C   0  0  0  0  0  0  0  0  0  0  0  0
    3.0546    1.4354    0.0000 C   0  0  0  0  0  0  0  0  0  0  0  0
    3.8751    1.3492    0.0000 N   0  0  0  0  0  0  0  0  0  0  0  0
    2.5698    0.7680    0.0000 O   0  0  0  0  0  0  0  0  0  0  0  0
    1.4862    2.9898    0.0000 C   0  0  0  0  0  0  0  0  0  0  0  0
    0.6792    2.8183    0.0000 N   0  0  0  0  0  0  0  0  0  0  0  0
    0.5930    1.9978    0.0000 C   0  0  0  0  0  0  0  0  0  0  0  0
   -0.4007    1.6189    0.0000 C   0  0  0  0  0  0  0  0  0  0  0  0
   -0.3369    0.7964    0.0000 C   0  0  0  0  0  0  0  0  0  0  0  0
   -1.2077    1.7904    0.0000 C   0  0  0  0  0  0  0  0  0  0  0  0
   -1.2939    2.6109    0.0000 N   0  0  0  0  0  0  0  0  0  0  0  0
   -2.1009    2.7824    0.0000 C   0  0  0  0  0  0  0  0  0  0  0  0
   -2.3739    3.8102    0.0000 C   0  0  0  0  0  0  0  0  0  0  0  0
   -2.1189    4.5948    0.0000 C   0  0  0  0  0  0  0  0  0  0  0  0
   -1.2939    4.5948    0.0000 N   0  0  0  0  0  0  0  0  0  0  0  0
   -1.0390    5.3795    0.0000 C   0  0  0  0  0  0  0  0  0  0  0  0
    0.0118    5.5435    0.0000 C   0  0  0  0  0  0  0  0  0  0  0  0
    0.1204    6.3613    0.0000 C   0  0  0  0  0  0  0  0  0  0  0  0
    0.7654    5.2079    0.0000 C   0  0  0  0  0  0  0  0  0  0  0  0
    0.6792    4.3874    0.0000 N   0  5  0  0  0  0  0  0  0  0  0  0
    1.4329    4.0519    0.0000 C   0  0  0  0  0  0  0  0  0  0  0  0
    2.2103    3.7756    0.0000 C   0  0  0  0  0  0  0  0  0  0  0  0
    1.9849    4.6650    0.0000 C   0  0  0  0  0  0  0  0  0  0  0  0
    2.5370    4.0519    0.0000 C   0  0  0  0  0  0  0  0  0  0  0  0
    2.6524    5.1499    0.0000 C   0  0  0  0  0  0  0  0  0  0  0  0
    3.4059    4.8143    0.0000 C   0  0  0  0  0  0  0  0  0  0  0  0
    4.0734    5.2993    0.0000 N   0  0  0  0  0  0  0  0  0  0  0  0
    3.4922    3.9939    0.0000 O   0  0  0  0  0  0  0  0  0  0  0  0
    1.5724    5.3795    0.0000 C   0  0  0  0  0  0  0  0  0  0  0  0
    1.9080    6.1331    0.0000 C   0  0  0  0  0  0  0  0  0  0  0  0
    1.4231    6.8006    0.0000 C   0  0  0  0  0  0  0  0  0  0  0  0
    1.7586    7.5542    0.0000 C   0  0  0  0  0  0  0  0  0  0  0  0
    2.5791    7.6405    0.0000 N   0  0  0  0  0  0  0  0  0  0  0  0
    1.2737    8.2217    0.0000 O   0  0  0  0  0  0  0  0  0  0  0  0
   -1.7064    5.8644    0.0000 C   0  0  0  0  0  0  0  0  0  0  0  0
   -1.1544    6.4775    0.0000 C   0  0  0  0  0  0  0  0  0  0  0  0
   -2.2585    6.4775    0.0000 C   0  0  0  0  0  0  0  0  0  0  0  0
   -2.0035    7.2621    0.0000 C   0  0  0  0  0  0  0  0  0  0  0  0
   -2.5556    7.8752    0.0000 N   0  0  0  0  0  0  0  0  0  0  0  0
   -1.1966    7.4336    0.0000 O   0  0  0  0  0  0  0  0  0  0  0  0
   -2.3739    5.3795    0.0000 C   0  0  0  0  0  0  0  0  0  0  0  0
   -3.1584    5.6344    0.0000 C   0  0  0  0  0  0  0  0  0  0  0  0
   -3.7715    5.0824    0.0000 C   0  0  0  0  0  0  0  0  0  0  0  0
   -3.6000    4.2754    0.0000 C   0  0  0  0  0  0  0  0  0  0  0  0
   -4.2131    3.7234    0.0000 N   0  0  0  0  0  0  0  0  0  0  0  0
   -2.8154    4.0204    0.0000 O   0  0  0  0  0  0  0  0  0  0  0  0
   -2.5134    2.0680    0.0000 C   0  0  0  0  0  0  0  0  0  0  0  0
   -3.0653    1.4549    0.0000 C   0  0  0  0  0  0  0  0  0  0  0  0
   -3.1807    2.5529    0.0000 C   0  0  0  0  0  0  0  0  0  0  0  0
   -1.9614    1.4549    0.0000 C   0  0  0  0  0  0  0  0  0  0  0  0
   -2.1329    0.6479    0.0000 C   0  0  0  0  0  0  0  0  0  0  0  0
   -2.9175    0.3930    0.0000 C   0  0  0  0  0  0  0  0  0  0  0  0
   -3.0889   -0.4140    0.0000 C   0  0  0  0  0  0  0  0  0  0  0  0
   -2.4760   -0.9660    0.0000 N   0  0  0  0  0  0  0  0  0  0  0  0
   -3.8736   -0.6689    0.0000 O   0  0  0  0  0  0  0  0  0  0  0  0
    3.7576   -2.7389    0.0000 O   0  0  0  0  0  0  0  0  0  0  0  0
    3.6714   -3.5592    0.0000 P   0  0  0  0  0  0  0  0  0  0  0  0
    2.8510   -3.4730    0.0000 O   0  5  0  0  0  0  0  0  0  0  0  0
    4.4918   -3.6455    0.0000 O   0  0  0  0  0  0  0  0  0  0  0  0
    3.5851   -4.3797    0.0000 O   0  0  0  0  0  0  0  0  0  0  0  0
    4.2526   -4.8647    0.0000 C   0  0  0  0  0  0  0  0  0  0  0  0
    5.0372   -4.6097    0.0000 C   0  0  0  0  0  0  0  0  0  0  0  0
    5.2921   -3.8251    0.0000 C   0  0  0  0  0  0  0  0  0  0  0  0
    6.0991   -3.6536    0.0000 O   0  0  0  0  0  0  0  0  0  0  0  0
    5.5221   -5.2772    0.0000 O   0  0  0  0  0  0  0  0  0  0  0  0
    5.0372   -5.9446    0.0000 C   0  0  0  0  0  0  0  0  0  0  0  0
    4.2526   -5.6897    0.0000 C   0  0  0  0  0  0  0  0  0  0  0  0
    3.5851   -6.1746    0.0000 O   0  0  0  0  0  0  0  0  0  0  0  0
    5.2921   -6.7292    0.0000 N   0  0  0  0  0  0  0  0  0  0  0  0
    4.8072   -7.3967    0.0000 C   0  0  0  0  0  0  0  0  0  0  0  0
    5.2921   -8.0641    0.0000 N   0  0  0  0  0  0  0  0  0  0  0  0
    6.0767   -7.8092    0.0000 C   0  0  0  0  0  0  0  0  0  0  0  0
    6.0767   -6.9842    0.0000 C   0  0  0  0  0  0  0  0  0  0  0  0
    6.7912   -6.5717    0.0000 C   0  0  0  0  0  0  0  0  0  0  0  0
    7.5057   -6.9842    0.0000 C   0  0  0  0  0  0  0  0  0  0  0  0
    8.2202   -6.5717    0.0000 C   0  0  0  0  0  0  0  0  0  0  0  0
    7.5057   -7.8092    0.0000 C   0  0  0  0  0  0  0  0  0  0  0  0
    8.2202   -8.2217    0.0000 C   0  0  0  0  0  0  0  0  0  0  0  0
    6.7912   -8.2217    0.0000 C   0  0  0  0  0  0  0  0  0  0  0  0
  2  3  3  0      
  4  5  1  0      
  5  6  1  0      
  6  7  1  0      
  7  8  1  0      
  8  9  2  0      
  8 10  1  0      
 10 11  1  0      
 11 12  1  0      
 12 13  1  0      
 12 14  1  0      
 14 15  1  0      
 15 16  1  0      
 16 17  1  0      
 16 18  2  0      
 14 19  1  0      
 19 20  1  0      
 20 21  2  0      
 12 21  1  0      
 21 22  1  0      
 22 23  1  4      
 22 24  2  0      
 24 25  1  0      
 25 26  2  0      
 27 26  1  4      
 27 28  2  0      
 28 29  1  0      
 29 30  2  0      
 30 31  1  0      
 31 32  1  4      
 31 33  2  0      
 33 34  1  0      
 34 35  1  0      
 19 35  1  0      
 35 36  1  0      
 35 37  1  0      
 37 38  1  0      
 37 39  1  0      
 39 40  1  0      
 40 41  1  0      
 40 42  2  0      
 37 43  1  0      
 33 43  1  0      
 43 44  1  0      
 44 45  1  0      
 45 46  1  0      
 46 47  1  0      
 46 48  2  0      
 30 49  1  0      
 49 50  1  0      
 49 51  1  0      
 51 52  1  0      
 52 53  1  0      
 52 54  2  0      
 49 55  1  0      
 28 55  1  0      
 55 56  1  0      
 56 57  1  0      
 57 58  1  0      
 58 59  1  0      
 58 60  2  0      
 26 61  1  0      
 61 62  1  0      
 61 63  1  0      
 61 64  1  0      
 24 64  1  0      
 64 65  1  0      
 65 66  1  0      
 66 67  1  0      
 67 68  1  0      
 67 69  2  0      
  5 70  1  0      
 70 71  1  0      
 71 72  1  0      
 71 73  2  0      
 71 74  1  0      
 74 75  1  0      
 75 76  1  0      
 76 77  1  0      
 77 78  1  0      
 76 79  1  0      
 79 80  1  0      
 80 81  1  0      
 75 81  1  0      
 81 82  1  0      
 80 83  1  0      
 83 84  1  0      
 84 85  2  0      
 85 86  1  0      
 86 87  2  0      
 83 87  1  0      
 87 88  1  0      
 88 89  2  0      
 89 90  1  0      
 89 91  1  0      
 91 92  1  0      
 91 93  2  0      
 86 93  1  0      
M  CHG  4   1   3   2  -1  34  -1  72  -1
M  END
>  <Bioactivity>
Vitamin B12 is a water soluble vitamin with a key role in the normal functioning of the brain and nervous system, and for the formation of blood.

>  <CAS>
68-19-9

>  <Col>
7

>  <Formula>
C63H88CoN14O14P

>  <ID>
T1040

>  <Index>
146

>  <MOLENAME>
Cyanocobalamin

>  <MolWt>
1355.37

>  <Pathways>
Vitamin

>  <Plate>
PLATE 002

>  <QR code>
1152411547

>  <Receptor>
VB12

>  <Reference>
1. Ghazanfari S, et al. Drug Res (Stuttg). 2014 Mar;64(3):113-7. 

>  <Row>
G

>  <SMILES>
[Co+3].[C-]#N.CC(CNC(=O)CCC1(C)C(CC(N)=O)C2N=C1C(C)=C1N=C(C=C3N=C(C(C)=C4[N-]C2(C)C(C)(CC(N)=O)C4CCC(N)=O)C(C)(CC(N)=O)C3CCC(N)=O)C(C)(C)C1CCC(N)=O)OP([O-])(=O)OC1C(CO)OC(C1O)N1C=NC2=C1C=C(C)C(C)=C2

>  <Target>
VB

>  <Weight>
10.2mg

$$$$
Lab-1.sdf
  ChemDraw05232018482D

 23 22  0  0  0  0  0  0  0  0999 V2000
   -2.2503    0.9361    0.0000 O   0  0  0  0  0  0  0  0  0  0  0  0
   -2.2503    0.1111    0.0000 C   0  0  0  0  0  0  0  0  0  0  0  0
   -2.9647   -0.3014    0.0000 C   0  0  0  0  0  0  0  0  0  0  0  0
   -2.9647   -1.1264    0.0000 O   0  0  0  0  0  0  0  0  0  0  0  0
   -3.6792    0.1111    0.0000 C   0  0  0  0  0  0  0  0  0  0  0  0
   -4.3937   -0.3014    0.0000 O   0  0  0  0  0  0  0  0  0  0  0  0
   -3.6792    0.9361    0.0000 O   0  0  0  0  0  0  0  0  0  0  0  0
   -1.5358   -0.3015    0.0000 C   0  0  0  0  0  0  0  0  0  0  0  0
   -0.8213    0.1110    0.0000 O   0  0  0  0  0  0  0  0  0  0  0  0
   -1.5358   -1.1265    0.0000 O   0  0  0  0  0  0  0  0  0  0  0  0
    1.5358    2.4750    0.0000 C   0  0  0  0  0  0  0  0  0  0  0  0
    2.2503    2.0625    0.0000 N   0  0  0  0  0  0  0  0  0  0  0  0
    2.2503    1.2375    0.0000 C   0  0  0  0  0  0  0  0  0  0  0  0
    2.9648    0.8250    0.0000 C   0  0  0  0  0  0  0  0  0  0  0  0
    3.6792    1.2375    0.0000 O   0  0  0  0  0  0  0  0  0  0  0  0
    2.9648   -0.0000    0.0000 C   0  0  0  0  0  0  0  0  0  0  0  0
    3.6792   -0.4125    0.0000 C   0  0  0  0  0  0  0  0  0  0  0  0
    3.6792   -1.2375    0.0000 C   0  0  0  0  0  0  0  0  0  0  0  0
    4.3937   -1.6500    0.0000 O   0  0  0  0  0  0  0  0  0  0  0  0
    2.9648   -1.6500    0.0000 C   0  0  0  0  0  0  0  0  0  0  0  0
    2.9648   -2.4750    0.0000 O   0  0  0  0  0  0  0  0  0  0  0  0
    2.2503   -1.2375    0.0000 C   0  0  0  0  0  0  0  0  0  0  0  0
    2.2503   -0.4125    0.0000 C   0  0  0  0  0  0  0  0  0  0  0  0
  1  2  1  0      
  2  3  1  0      
  3  4  1  0      
  3  5  1  0      
  5  6  1  0      
  5  7  2  0      
  2  8  1  0      
  8  9  1  0      
  8 10  2  0      
 11 12  1  0      
 12 13  1  0      
 13 14  1  0      
 14 15  1  0      
 14 16  1  0      
 16 17  2  0      
 17 18  1  0      
 18 19  1  0      
 18 20  2  0      
 20 21  1  0      
 20 22  1  0      
 22 23  2  0      
 16 23  1  0      
M  END
>  <Bioactivity>
L-Epinephrine Bitartrate is alpha- and beta-adrenergic receptor stimulator.

>  <CAS>
51-42-3

>  <Col>
8

>  <Formula>
C13H19NO9

>  <ID>
T1047

>  <Index>
147

>  <MOLENAME>
Epinephrine bitartrate

>  <MolWt>
333.3

>  <Pathways>
GPCR/G Protein

>  <Plate>
PLATE 002

>  <QR code>
1152411546

>  <Receptor>
Adrenergic Receptor; PAH; TNF

>  <Reference>
1. Sanbe A, et al. Br J Pharmacol. 2007 Oct;152(3):332-40. 

>  <Row>
G

>  <SMILES>
OC(C(O)C(O)=O)C(O)=O.CNCC(O)C1=CC(O)=C(O)C=C1

>  <Target>
Adrenergic Receptor antagonist; PAH antagonist; TNF-alpha antagonist

>  <Weight>
10.3mg

$$$$
Lab-1.sdf
  ChemDraw05232018482D

 20 23  0  0  0  0  0  0  0  0999 V2000
   -2.1308    1.2924    0.0000 C   0  0  0  0  0  0  0  0  0  0  0  0
   -1.7709    0.5500    0.0000 C   0  0  0  0  0  0  0  0  0  0  0  0
   -1.2391    1.1807    0.0000 C   0  0  0  0  0  0  0  0  0  0  0  0
   -0.4270    1.0355    0.0000 C   0  0  0  0  0  0  0  0  0  0  0  0
   -0.1467    0.2596    0.0000 C   0  0  0  0  0  0  0  0  0  0  0  0
   -0.6785   -0.3712    0.0000 C   0  0  0  0  0  0  0  0  0  0  0  0
   -0.3982   -1.1471    0.0000 C   0  0  0  0  0  0  0  0  0  0  0  0
    0.4139   -1.2924    0.0000 C   0  0  0  0  0  0  0  0  0  0  0  0
    0.9457   -0.6617    0.0000 C   0  0  0  0  0  0  0  0  0  0  0  0
    0.6654    0.1144    0.0000 C   0  0  0  0  0  0  0  0  0  0  0  0
    1.1973    0.7451    0.0000 C   0  0  0  0  0  0  0  0  0  0  0  0
    2.0094    0.5999    0.0000 C   0  0  0  0  0  0  0  0  0  0  0  0
    2.2898   -0.1762    0.0000 C   0  0  0  0  0  0  0  0  0  0  0  0
    3.1019   -0.3214    0.0000 O   0  0  0  0  0  0  0  0  0  0  0  0
    1.7579   -0.8069    0.0000 C   0  0  0  0  0  0  0  0  0  0  0  0
   -1.4906   -0.2260    0.0000 C   0  0  0  0  0  0  0  0  0  0  0  0
   -2.1420   -0.7324    0.0000 C   0  0  0  0  0  0  0  0  0  0  0  0
   -2.8249   -0.2694    0.0000 C   0  0  0  0  0  0  0  0  0  0  0  0
   -2.5956    0.5232    0.0000 C   0  0  0  0  0  0  0  0  0  0  0  0
   -3.1019    1.1745    0.0000 O   0  0  0  0  0  0  0  0  0  0  0  0
  1  2  1  0      
  2  3  1  0      
  3  4  1  0      
  4  5  1  0      
  5  6  1  0      
  6  7  1  0      
  7  8  1  0      
  8  9  1  0      
  9 10  2  0      
  5 10  1  0      
 10 11  1  0      
 11 12  2  0      
 12 13  1  0      
 13 14  1  0      
 13 15  2  0      
  9 15  1  0      
  6 16  1  0      
  2 16  1  0      
 16 17  1  0      
 17 18  1  0      
 18 19  1  0      
  2 19  1  0      
 19 20  1  0      
M  END
>  <Bioactivity>
Estradiol (E2) is a potent mammalian?estrogenic?hormone that is produced in the ovaries (by the granulosa cells), placenta, testis and possibly the adrenal cortex.

>  <CAS>
50-28-2

>  <Col>
9

>  <Formula>
C18H24O2

>  <ID>
T1048

>  <Index>
148

>  <MOLENAME>
Estradiol

>  <MolWt>
272.38

>  <Pathways>
Endocrinology/ Hormones

>  <Plate>
PLATE 002

>  <QR code>
1152411545

>  <Receptor>
Androgen Receptor ; ERR

>  <Reference>
1. Takabe K, et al. J Biol Chem, 2010, 285(14), 10477-10486.

>  <Row>
G

>  <SMILES>
CC12CCC3C(CCC4=C3C=CC(O)=C4)C1CCC2O

>  <Target>
Androgen Receptor agonist; Estrogen receptor agonist

>  <Weight>
10.3mg

$$$$
Lab-1.sdf
  ChemDraw05232018482D

 22 22  0  0  0  0  0  0  0  0999 V2000
   -1.0717    1.8562    0.0000 C   0  0  0  0  0  0  0  0  0  0  0  0
   -1.0717    1.0313    0.0000 C   0  0  0  0  0  0  0  0  0  0  0  0
   -1.7862    0.6188    0.0000 C   0  0  0  0  0  0  0  0  0  0  0  0
   -1.7862   -0.2062    0.0000 C   0  0  0  0  0  0  0  0  0  0  0  0
   -2.5007   -0.6187    0.0000 C   0  0  0  0  0  0  0  0  0  0  0  0
   -2.5007   -1.4437    0.0000 C   0  0  0  0  0  0  0  0  0  0  0  0
   -1.7862   -1.8562    0.0000 C   0  0  0  0  0  0  0  0  0  0  0  0
   -3.2151   -1.8562    0.0000 C   0  0  0  0  0  0  0  0  0  0  0  0
   -3.9296   -1.4437    0.0000 C   0  0  0  0  0  0  0  0  0  0  0  0
   -3.9296   -0.6187    0.0000 C   0  0  0  0  0  0  0  0  0  0  0  0
   -3.2151   -0.2062    0.0000 C   0  0  0  0  0  0  0  0  0  0  0  0
   -3.6024    0.5222    0.0000 C   0  0  0  0  0  0  0  0  0  0  0  0
   -2.8278    0.5222    0.0000 C   0  0  0  0  0  0  0  0  0  0  0  0
   -0.3572    0.6188    0.0000 C   0  0  0  0  0  0  0  0  0  0  0  0
    0.3572    1.0313    0.0000 C   0  0  0  0  0  0  0  0  0  0  0  0
    1.0717    0.6188    0.0000 C   0  0  0  0  0  0  0  0  0  0  0  0
    1.7862    1.0313    0.0000 C   0  0  0  0  0  0  0  0  0  0  0  0
    1.7862    1.8562    0.0000 C   0  0  0  0  0  0  0  0  0  0  0  0
    2.5006    0.6188    0.0000 C   0  0  0  0  0  0  0  0  0  0  0  0
    3.2151    1.0313    0.0000 C   0  0  0  0  0  0  0  0  0  0  0  0
    3.2151    1.8562    0.0000 O   0  0  0  0  0  0  0  0  0  0  0  0
    3.9296    0.6188    0.0000 O   0  0  0  0  0  0  0  0  0  0  0  0
  1  2  1  0      
  3  2  1  4      
  3  4  2  0      
  4  5  1  0      
  5  6  2  0      
  6  7  1  0      
  6  8  1  0      
  8  9  1  0      
  9 10  1  0      
 10 11  1  0      
  5 11  1  0      
 11 12  1  0      
 11 13  1  0      
  2 14  2  0      
 14 15  1  4      
 15 16  2  0      
 16 17  1  4      
 17 18  1  0      
 17 19  2  0      
 19 20  1  4      
 20 21  1  0      
 20 22  2  0      
M  END
>  <Bioactivity>
An important regulator of GENE EXPRESSION during growth and development, and in NEOPLASMS. Tretinoin, also known as retinoic acid and derived from maternal VITAMIN A, is essential for normal GROWTH; a
nd EMBRYONIC DEVELOPMENT. An excess of tretinoin can be teratogenic. It is used in the treatment of PSORIASIS; ACNE VULGARIS; and several other SKIN DISEASES. It has also been approved for use in prom
yelocytic leukemia (LEUKEMIA, PROMYELOCYTIC, ACUTE).

>  <CAS>
302-79-4

>  <Col>
10

>  <Formula>
C20H28O2

>  <ID>
T1051

>  <Index>
149

>  <MOLENAME>
Tretinoin

>  <MolWt>
300.44

>  <Pathways>
Metabolism

>  <Plate>
PLATE 002

>  <QR code>
1152411544

>  <Receptor>
RXR; RAR

>  <Reference>
1. Manzano VM, et al. J Pharmacol Exp Ther, 1999, 289(1), 123-132.

>  <Row>
G

>  <SMILES>
CC(C=CC1=C(C)CCCC1(C)C)=CC=CC(C)=CC(O)=O

>  <Target>
RXR/RAR agonist

>  <Weight>
10.3mg

$$$$
Lab-1.sdf
  ChemDraw05232018482D

 22 22  0  0  0  0  0  0  0  0999 V2000
   -5.3583    0.0000    0.0000 C   0  0  0  0  0  0  0  0  0  0  0  0
   -4.6440   -0.4125    0.0000 O   0  0  0  0  0  0  0  0  0  0  0  0
   -3.9295    0.0000    0.0000 C   0  0  0  0  0  0  0  0  0  0  0  0
   -3.9295    0.8250    0.0000 C   0  0  0  0  0  0  0  0  0  0  0  0
   -4.6440    1.2375    0.0000 O   0  0  0  0  0  0  0  0  0  0  0  0
   -3.2150    1.2375    0.0000 C   0  0  0  0  0  0  0  0  0  0  0  0
   -2.5006    0.8250    0.0000 C   0  0  0  0  0  0  0  0  0  0  0  0
   -2.5006    0.0000    0.0000 C   0  0  0  0  0  0  0  0  0  0  0  0
   -1.7861   -0.4125    0.0000 C   0  0  0  0  0  0  0  0  0  0  0  0
   -1.0717    0.0000    0.0000 N   0  0  0  0  0  0  0  0  0  0  0  0
   -0.3572   -0.4125    0.0000 C   0  0  0  0  0  0  0  0  0  0  0  0
   -0.3572   -1.2375    0.0000 O   0  0  0  0  0  0  0  0  0  0  0  0
    0.3572    0.0000    0.0000 C   0  0  0  0  0  0  0  0  0  0  0  0
    1.0717   -0.4125    0.0000 C   0  0  0  0  0  0  0  0  0  0  0  0
    1.7861    0.0000    0.0000 C   0  0  0  0  0  0  0  0  0  0  0  0
    2.5005   -0.4125    0.0000 C   0  0  0  0  0  0  0  0  0  0  0  0
    3.2150    0.0000    0.0000 C   0  0  0  0  0  0  0  0  0  0  0  0
    3.9295   -0.4125    0.0000 C   0  0  0  0  0  0  0  0  0  0  0  0
    4.6440    0.0000    0.0000 C   0  0  0  0  0  0  0  0  0  0  0  0
    4.6440    0.8250    0.0000 C   0  0  0  0  0  0  0  0  0  0  0  0
    5.3583   -0.4125    0.0000 C   0  0  0  0  0  0  0  0  0  0  0  0
   -3.2150   -0.4125    0.0000 C   0  0  0  0  0  0  0  0  0  0  0  0
  1  2  1  0      
  2  3  1  0      
  3  4  2  0      
  4  5  1  0      
  4  6  1  0      
  6  7  2  0      
  7  8  1  0      
  8  9  1  0      
  9 10  1  0      
 10 11  1  0      
 11 12  2  0      
 11 13  1  0      
 13 14  1  0      
 14 15  1  0      
 15 16  1  0      
 17 16  1  4      
 17 18  2  0      
 18 19  1  0      
 19 20  1  0      
 19 21  1  0      
  8 22  2  0      
  3 22  1  0      
M  END
>  <Bioactivity>
Capsaicin is an active component of chili peppers. It selectively binds to TRPV1 which is a heat-activated calcium channel. Capsaicin causes the channel to open below 37 ¡ãC This is why capsaicin is l
inked to the sensation of heat. 

>  <CAS>
404-86-4

>  <Col>
11

>  <Formula>
C18H27NO3

>  <ID>
T1062

>  <Index>
150

>  <MOLENAME>
Capsaicin

>  <MolWt>
305.41

>  <Pathways>
Membrane Transporter/Ion Channel

>  <Plate>
PLATE 002

>  <QR code>
1152411543

>  <Receptor>
TRPV1 receptor

>  <Reference>
1. Shaqura M, et al. Neuropharmacology. 2014 Oct;85:142-50. 

>  <Row>
G

>  <SMILES>
COC1=C(O)C=CC(CNC(=O)CCCCC=CC(C)C)=C1

>  <Target>
TRP/TRPV Channel agonist

>  <Weight>
10.3mg

$$$$
Lab-1.sdf
  ChemDraw05232018482D

 65 67  0  0  0  0  0  0  0  0999 V2000
   -5.1823    3.7968    0.0000 C   0  0  0  0  0  0  0  0  0  0  0  0
   -5.2808    2.9778    0.0000 C   0  0  0  0  0  0  0  0  0  0  0  0
   -4.6207    2.4829    0.0000 O   0  0  0  0  0  0  0  0  0  0  0  0
   -4.7192    1.6638    0.0000 C   0  0  0  0  0  0  0  0  0  0  0  0
   -4.0591    1.1689    0.0000 O   0  0  0  0  0  0  0  0  0  0  0  0
   -4.1576    0.3498    0.0000 C   0  0  0  0  0  0  0  0  0  0  0  0
   -4.9163    0.0257    0.0000 C   0  0  0  0  0  0  0  0  0  0  0  0
   -5.0148   -0.7934    0.0000 C   0  0  0  0  0  0  0  0  0  0  0  0
   -4.3547   -1.2883    0.0000 O   0  0  0  0  0  0  0  0  0  0  0  0
   -4.4532   -2.1074    0.0000 C   0  0  0  0  0  0  0  0  0  0  0  0
   -4.5517   -2.9265    0.0000 O   0  0  0  0  0  0  0  0  0  0  0  0
   -5.2118   -2.4316    0.0000 C   0  0  0  0  0  0  0  0  0  0  0  0
   -5.8719   -1.9367    0.0000 C   0  0  0  0  0  0  0  0  0  0  0  0
   -6.6305   -2.2610    0.0000 O   0  0  0  0  0  0  0  0  0  0  0  0
   -5.7734   -1.1176    0.0000 C   0  0  0  0  0  0  0  0  0  0  0  0
   -6.4335   -0.6228    0.0000 C   0  0  0  0  0  0  0  0  0  0  0  0
   -6.3350    0.1962    0.0000 O   0  0  0  0  0  0  0  0  0  0  0  0
   -7.1921   -0.9470    0.0000 O   0  0  0  0  0  0  0  0  0  0  0  0
   -3.7931   -2.6022    0.0000 C   0  0  0  0  0  0  0  0  0  0  0  0
   -3.0345   -2.2780    0.0000 C   0  0  0  0  0  0  0  0  0  0  0  0
   -2.9360   -1.4589    0.0000 O   0  0  0  0  0  0  0  0  0  0  0  0
   -2.3744   -2.7729    0.0000 C   0  0  0  0  0  0  0  0  0  0  0  0
   -1.6158   -2.4487    0.0000 C   0  0  0  0  0  0  0  0  0  0  0  0
   -1.5172   -1.6296    0.0000 O   0  0  0  0  0  0  0  0  0  0  0  0
   -0.9557   -2.9435    0.0000 C   0  0  0  0  0  0  0  0  0  0  0  0
   -1.0542   -3.7626    0.0000 O   0  0  0  0  0  0  0  0  0  0  0  0
   -0.1971   -2.6193    0.0000 C   0  0  0  0  0  0  0  0  0  0  0  0
    0.4630   -3.1142    0.0000 C   0  0  0  0  0  0  0  0  0  0  0  0
    1.2217   -2.7900    0.0000 C   0  0  0  0  0  0  0  0  0  0  0  0
    1.3202   -1.9709    0.0000 O   0  0  0  0  0  0  0  0  0  0  0  0
    1.8818   -3.2848    0.0000 C   0  0  0  0  0  0  0  0  0  0  0  0
    2.6404   -2.9606    0.0000 C   0  0  0  0  0  0  0  0  0  0  0  0
    2.7389   -2.1415    0.0000 O   0  0  0  0  0  0  0  0  0  0  0  0
    3.3005   -3.4555    0.0000 C   0  0  0  0  0  0  0  0  0  0  0  0
    4.0591   -3.1312    0.0000 C   0  0  0  0  0  0  0  0  0  0  0  0
    4.1576   -2.3121    0.0000 O   0  0  0  0  0  0  0  0  0  0  0  0
    4.7192   -3.6261    0.0000 O   0  0  0  0  0  0  0  0  0  0  0  0
    5.4778   -3.3019    0.0000 C   0  0  0  0  0  0  0  0  0  0  0  0
    6.1379   -3.7968    0.0000 C   0  0  0  0  0  0  0  0  0  0  0  0
    5.5763   -2.4828    0.0000 C   0  0  0  0  0  0  0  0  0  0  0  0
    4.9162   -1.9879    0.0000 C   0  0  0  0  0  0  0  0  0  0  0  0
    6.3350   -2.1586    0.0000 C   0  0  0  0  0  0  0  0  0  0  0  0
    6.9950   -2.6534    0.0000 O   0  0  0  0  0  0  0  0  0  0  0  0
    6.4335   -1.3395    0.0000 C   0  0  0  0  0  0  0  0  0  0  0  0
    7.1921   -1.0152    0.0000 C   0  0  0  0  0  0  0  0  0  0  0  0
    5.7734   -0.8446    0.0000 C   0  0  0  0  0  0  0  0  0  0  0  0
    5.0148   -1.1688    0.0000 C   0  0  0  0  0  0  0  0  0  0  0  0
    4.3547   -0.6740    0.0000 C   0  0  0  0  0  0  0  0  0  0  0  0
    3.5960   -0.9982    0.0000 C   0  0  0  0  0  0  0  0  0  0  0  0
    2.9359   -0.5033    0.0000 C   0  0  0  0  0  0  0  0  0  0  0  0
    2.1773   -0.8275    0.0000 C   0  0  0  0  0  0  0  0  0  0  0  0
    1.5172   -0.3327    0.0000 C   0  0  0  0  0  0  0  0  0  0  0  0
    0.7586   -0.6569    0.0000 C   0  0  0  0  0  0  0  0  0  0  0  0
    0.0985   -0.1620    0.0000 C   0  0  0  0  0  0  0  0  0  0  0  0
   -0.6601   -0.4862    0.0000 C   0  0  0  0  0  0  0  0  0  0  0  0
   -1.3202    0.0086    0.0000 C   0  0  0  0  0  0  0  0  0  0  0  0
   -2.0788   -0.3156    0.0000 C   0  0  0  0  0  0  0  0  0  0  0  0
   -2.7389    0.1792    0.0000 C   0  0  0  0  0  0  0  0  0  0  0  0
   -3.4975   -0.1450    0.0000 C   0  0  0  0  0  0  0  0  0  0  0  0
   -5.4778    1.3396    0.0000 C   0  0  0  0  0  0  0  0  0  0  0  0
   -5.5764    0.5205    0.0000 O   0  0  0  0  0  0  0  0  0  0  0  0
   -6.1379    1.8344    0.0000 C   0  0  0  0  0  0  0  0  0  0  0  0
   -6.8965    1.5102    0.0000 N   0  0  0  0  0  0  0  0  0  0  0  0
   -6.0394    2.6535    0.0000 C   0  0  0  0  0  0  0  0  0  0  0  0
   -6.6995    3.1484    0.0000 O   0  0  0  0  0  0  0  0  0  0  0  0
  1  2  1  0      
  2  3  1  0      
  3  4  1  0      
  4  5  1  0      
  5  6  1  0      
  6  7  1  0      
  7  8  1  0      
  8  9  1  0      
  9 10  1  0      
 10 11  1  0      
 10 12  1  0      
 12 13  1  0      
 13 14  1  0      
 13 15  1  0      
  8 15  1  0      
 15 16  1  0      
 16 17  1  0      
 16 18  2  0      
 10 19  1  0      
 19 20  1  0      
 20 21  1  0      
 20 22  1  0      
 22 23  1  0      
 23 24  1  0      
 23 25  1  0      
 25 26  1  0      
 25 27  1  0      
 27 28  1  0      
 28 29  1  0      
 29 30  1  0      
 29 31  1  0      
 31 32  1  0      
 32 33  1  0      
 32 34  1  0      
 34 35  1  0      
 35 36  2  0      
 35 37  1  0      
 37 38  1  0      
 38 39  1  0      
 38 40  1  0      
 40 41  1  0      
 40 42  1  0      
 42 43  1  0      
 42 44  1  0      
 44 45  1  0      
 46 44  1  4      
 46 47  2  0      
 48 47  1  4      
 48 49  2  0      
 50 49  1  4      
 50 51  2  0      
 52 51  1  4      
 52 53  2  0      
 54 53  1  4      
 54 55  2  0      
 56 55  1  4      
 56 57  2  0      
 58 57  1  4      
 58 59  2  0      
  6 59  1  0      
  4 60  1  0      
 60 61  1  0      
 60 62  1  0      
 62 63  1  0      
 62 64  1  0      
  2 64  1  0      
 64 65  1  0      
M  END
>  <Bioactivity>
Amphotericin B is a Lipid-based Polyene Antifungal and Polyene Antifungal. The chemical classification of amphotericin b is Polyenes.

>  <CAS>
1397-89-3

>  <Col>
2

>  <Formula>
C47H73NO17

>  <ID>
T1067

>  <Index>
151

>  <MOLENAME>
Amphotericin B

>  <MolWt>
924.08

>  <Pathways>
Microbiology & Virology

>  <Plate>
PLATE 002

>  <QR code>
1152411531

>  <Receptor>
Others

>  <Reference>
1. Sau K, et al. J Biol Chem, 2003, 278(39), 37561-37568.

>  <Row>
H

>  <SMILES>
CC1OC(OC2CC3OC(O)(CC(O)C3C(O)=O)CC(O)CC(O)C(O)CCC(O)CC(O)CC(=O)OC(C)C(C)C(O)C(C)C=CC=CC=CC=CC=CC=CC=C2)C(O)C(N)C1O

>  <Target>
Antibiotic

>  <Weight>
10.1mg

$$$$
Lab-1.sdf
  ChemDraw05232018482D

 13 13  0  0  0  0  0  0  0  0999 V2000
   -1.4289    2.4750    0.0000 C   0  0  0  0  0  0  0  0  0  0  0  0
   -0.7144    2.0625    0.0000 N   0  0  0  0  0  0  0  0  0  0  0  0
   -0.7144    1.2375    0.0000 C   0  0  0  0  0  0  0  0  0  0  0  0
    0.0000    0.8250    0.0000 C   0  0  0  0  0  0  0  0  0  0  0  0
    0.7144    1.2375    0.0000 O   0  0  0  0  0  0  0  0  0  0  0  0
    0.0000   -0.0000    0.0000 C   0  0  0  0  0  0  0  0  0  0  0  0
    0.7144   -0.4125    0.0000 C   0  0  0  0  0  0  0  0  0  0  0  0
    0.7144   -1.2375    0.0000 C   0  0  0  0  0  0  0  0  0  0  0  0
    1.4289   -1.6500    0.0000 O   0  0  0  0  0  0  0  0  0  0  0  0
    0.0000   -1.6500    0.0000 C   0  0  0  0  0  0  0  0  0  0  0  0
    0.0000   -2.4750    0.0000 O   0  0  0  0  0  0  0  0  0  0  0  0
   -0.7144   -1.2375    0.0000 C   0  0  0  0  0  0  0  0  0  0  0  0
   -0.7144   -0.4125    0.0000 C   0  0  0  0  0  0  0  0  0  0  0  0
  1  2  1  0      
  2  3  1  0      
  3  4  1  0      
  4  5  1  0      
  4  6  1  0      
  6  7  2  0      
  7  8  1  0      
  8  9  1  0      
  8 10  2  0      
 10 11  1  0      
 10 12  1  0      
 12 13  2  0      
  6 13  1  0      
M  END
>  <Bioactivity>
L-Epinephrine(L-Adrenaline) is a hormone and a neurotransmitter.

>  <CAS>
51-43-4

>  <Col>
3

>  <Formula>
C9H13NO3

>  <ID>
T1071

>  <Index>
152

>  <MOLENAME>
L-Adrenaline

>  <MolWt>
183.2

>  <Pathways>
GPCR/G Protein

>  <Plate>
PLATE 002

>  <QR code>
1152411532

>  <Receptor>
PAH; TNF; Adrenergic receptor

>  <Reference>
1. Sanbe A, et al. Br J Pharmacol. 2007 Oct;152(3):332-40. 

>  <Row>
H

>  <SMILES>
CNCC(O)C1=CC(O)=C(O)C=C1

>  <Target>
Adrenergic Receptor antagonist

>  <Weight>
10.2mg

$$$$
Lab-1.sdf
  ChemDraw05232018482D

 44 47  0  0  0  0  0  0  0  0999 V2000
    1.4289    0.4125    0.0000 C   0  0  0  0  0  0  0  0  0  0  0  0
    1.4289   -0.4125    0.0000 C   0  0  0  0  0  0  0  0  0  0  0  0
    0.7145   -0.8250    0.0000 O   0  0  0  0  0  0  0  0  0  0  0  0
    0.7145   -1.6500    0.0000 C   0  0  0  0  0  0  0  0  0  0  0  0
   -0.0000   -2.0625    0.0000 O   0  0  0  0  0  0  0  0  0  0  0  0
   -0.7145   -1.6500    0.0000 C   0  0  0  0  0  0  0  0  0  0  0  0
   -0.7145   -0.8250    0.0000 C   0  0  0  0  0  0  0  0  0  0  0  0
   -0.0000   -0.4125    0.0000 C   0  0  0  0  0  0  0  0  0  0  0  0
   -0.0000    0.4125    0.0000 O   0  0  0  0  0  0  0  0  0  0  0  0
   -1.4290   -0.4125    0.0000 O   0  0  0  0  0  0  0  0  0  0  0  0
   -2.1434   -0.8250    0.0000 C   0  0  0  0  0  0  0  0  0  0  0  0
   -2.8579   -0.4125    0.0000 O   0  0  0  0  0  0  0  0  0  0  0  0
   -2.8579    0.4125    0.0000 C   0  0  0  0  0  0  0  0  0  0  0  0
   -2.1434    0.8250    0.0000 C   0  0  0  0  0  0  0  0  0  0  0  0
   -1.4290    0.4125    0.0000 C   0  0  0  0  0  0  0  0  0  0  0  0
   -0.7145    0.8250    0.0000 O   0  0  0  0  0  0  0  0  0  0  0  0
   -2.1434    1.6500    0.0000 O   0  0  0  0  0  0  0  0  0  0  0  0
   -2.8579    2.0625    0.0000 C   0  0  0  0  0  0  0  0  0  0  0  0
   -2.8579    2.8875    0.0000 O   0  0  0  0  0  0  0  0  0  0  0  0
   -3.5724    1.6500    0.0000 C   0  0  0  0  0  0  0  0  0  0  0  0
   -4.2868    2.0625    0.0000 O   0  0  0  0  0  0  0  0  0  0  0  0
   -3.5724    0.8250    0.0000 C   0  0  0  0  0  0  0  0  0  0  0  0
   -4.2868    0.4125    0.0000 O   0  0  0  0  0  0  0  0  0  0  0  0
   -2.1434   -1.6500    0.0000 C   0  0  0  0  0  0  0  0  0  0  0  0
   -2.8579   -2.0625    0.0000 O   0  0  0  0  0  0  0  0  0  0  0  0
   -1.4290   -2.0625    0.0000 C   0  0  0  0  0  0  0  0  0  0  0  0
   -1.4290   -2.8875    0.0000 O   0  0  0  0  0  0  0  0  0  0  0  0
    1.4289   -2.0625    0.0000 C   0  0  0  0  0  0  0  0  0  0  0  0
    1.4289   -2.8875    0.0000 O   0  0  0  0  0  0  0  0  0  0  0  0
    2.1434   -1.6500    0.0000 C   0  0  0  0  0  0  0  0  0  0  0  0
    2.8579   -2.0625    0.0000 O   0  0  0  0  0  0  0  0  0  0  0  0
    2.1434   -0.8250    0.0000 C   0  0  0  0  0  0  0  0  0  0  0  0
    2.8579   -0.4125    0.0000 N   0  0  0  0  0  0  0  0  0  0  0  0
    2.8579    0.4125    0.0000 C   0  0  0  0  0  0  0  0  0  0  0  0
    2.1434    0.8250    0.0000 C   0  0  0  0  0  0  0  0  0  0  0  0
    2.1434    1.6500    0.0000 C   0  0  0  0  0  0  0  0  0  0  0  0
    1.4289    2.0625    0.0000 C   0  0  0  0  0  0  0  0  0  0  0  0
    0.7145    1.6500    0.0000 O   0  0  0  0  0  0  0  0  0  0  0  0
    2.8579    2.0625    0.0000 C   0  0  0  0  0  0  0  0  0  0  0  0
    2.8579    2.8875    0.0000 O   0  0  0  0  0  0  0  0  0  0  0  0
    3.5723    1.6500    0.0000 C   0  0  0  0  0  0  0  0  0  0  0  0
    4.2868    2.0625    0.0000 O   0  0  0  0  0  0  0  0  0  0  0  0
    3.5723    0.8250    0.0000 C   0  0  0  0  0  0  0  0  0  0  0  0
    4.2868    0.4125    0.0000 O   0  0  0  0  0  0  0  0  0  0  0  0
  1  2  1  0      
  2  3  1  0      
  3  4  1  0      
  4  5  1  0      
  5  6  1  0      
  6  7  1  0      
  7  8  1  0      
  8  9  1  0      
  7 10  1  0      
 10 11  1  0      
 11 12  1  0      
 12 13  1  0      
 13 14  1  0      
 14 15  1  0      
 15 16  1  0      
 14 17  1  0      
 17 18  1  0      
 18 19  1  0      
 18 20  1  0      
 20 21  1  0      
 20 22  1  0      
 13 22  1  0      
 22 23  1  0      
 11 24  1  0      
 24 25  1  0      
 24 26  1  0      
  6 26  1  0      
 26 27  1  0      
  4 28  1  0      
 28 29  1  0      
 28 30  1  0      
 30 31  1  0      
 30 32  1  0      
  2 32  1  0      
 32 33  1  0      
 33 34  1  0      
 34 35  1  0      
 35 36  2  0      
 36 37  1  0      
 37 38  1  0      
 36 39  1  0      
 39 40  1  0      
 39 41  1  0      
 41 42  1  0      
 41 43  1  0      
 34 43  1  0      
 43 44  1  0      
M  END
>  <Bioactivity>
Acarbose is an inhibitor of intestinal alpha-glucosidase, used to treat type 2 diabetes mellitus.

>  <CAS>
56180-94-0

>  <Col>
4

>  <Formula>
C25H43NO18

>  <ID>
T0247

>  <Index>
153

>  <MOLENAME>
Acarbose

>  <MolWt>
645.6

>  <Pathways>
Others

>  <Plate>
PLATE 002

>  <QR code>
1152411533

>  <Receptor>
¦Á-glucosidase

>  <Reference>
1. Martin AE, Montgomery PA. Am J Health Syst Pharm. 1996 Oct 1;53(19):2277-90; quiz 2336-7.

>  <Row>
H

>  <SMILES>
CC1OC(OC2C(CO)OC(OC3C(CO)OC(O)C(O)C3O)C(O)C2O)C(O)C(O)C1NC1C=C(CO)C(O)C(O)C1O

>  <Target>
Others

>  <Weight>
10.1mg

$$$$
Lab-1.sdf
  ChemDraw05232018482D

 13 14  0  0  0  0  0  0  0  0999 V2000
    0.2775   -1.6500    0.0000 C   0  0  0  0  0  0  0  0  0  0  0  0
    0.2775   -0.8250    0.0000 N   0  0  0  0  0  0  0  0  0  0  0  0
   -0.4369   -0.4125    0.0000 C   0  0  0  0  0  0  0  0  0  0  0  0
   -0.4369    0.4125    0.0000 C   0  0  0  0  0  0  0  0  0  0  0  0
   -1.2215    0.6674    0.0000 N   0  0  0  0  0  0  0  0  0  0  0  0
   -1.7064    0.0000    0.0000 C   0  0  0  0  0  0  0  0  0  0  0  0
   -1.2215   -0.6674    0.0000 N   0  0  0  0  0  0  0  0  0  0  0  0
    0.2775    0.8250    0.0000 C   0  0  0  0  0  0  0  0  0  0  0  0
    0.2775    1.6500    0.0000 O   0  0  0  0  0  0  0  0  0  0  0  0
    0.9919    0.4125    0.0000 N   0  0  0  0  0  0  0  0  0  0  0  0
    1.7064    0.8250    0.0000 C   0  0  0  0  0  0  0  0  0  0  0  0
    0.9919   -0.4125    0.0000 C   0  0  0  0  0  0  0  0  0  0  0  0
    1.7064   -0.8250    0.0000 O   0  0  0  0  0  0  0  0  0  0  0  0
  1  2  1  0      
  2  3  1  0      
  3  4  2  0      
  4  5  1  0      
  5  6  1  0      
  6  7  2  0      
  3  7  1  0      
  4  8  1  0      
  8  9  2  0      
  8 10  1  0      
 10 11  1  0      
 10 12  1  0      
  2 12  1  0      
 12 13  2  0      
M  END
>  <Bioactivity>
Theophylline is a methylated xanthine derivative; competitive nonselective phosphodiesterase inhibitor and nonselective adenosine receptor antagonist.

>  <CAS>
58-55-9

>  <Col>
5

>  <Formula>
C7H8N4O2

>  <ID>
T1083

>  <Index>
154

>  <MOLENAME>
Theophylline

>  <MolWt>
180.16

>  <Pathways>
Metabolism; GPCR/G Protein; Chromatin/Epigenetic

>  <Plate>
PLATE 002

>  <QR code>
1152411534

>  <Receptor>
PDE; HDAC2; Adenosine receptor

>  <Reference>
1. Philipp S, et al. Cardiovasc Res. 2006 May 1;70(2):308-14. 

>  <Row>
H

>  <SMILES>
CN1C2=C(NC=N2)C(=O)N(C)C1=O

>  <Target>
PDE inhibitor; HDAC activator; Adenosine receptor antagonist

>  <Weight>
10.2mg

$$$$
Lab-1.sdf
  ChemDraw05232018482D

 42 44  0  0  0  0  0  0  0  0999 V2000
   -5.4652   -1.2264    0.0000 O   0  0  0  0  0  0  0  0  0  0  0  0
   -5.4652   -0.4014    0.0000 S   0  0  0  0  0  0  0  0  0  0  0  0
   -5.4652    0.4236    0.0000 O   0  0  0  0  0  0  0  0  0  0  0  0
   -4.6403   -0.4014    0.0000 O   0  0  0  0  0  0  0  0  0  0  0  0
   -6.2902   -0.4014    0.0000 O   0  0  0  0  0  0  0  0  0  0  0  0
    0.5746    0.4125    0.0000 C   0  0  0  0  0  0  0  0  0  0  0  0
    0.5746   -0.4125    0.0000 N   0  0  0  0  0  0  0  0  0  0  0  0
    1.2891   -0.8250    0.0000 C   0  0  0  0  0  0  0  0  0  0  0  0
    2.0035   -0.4125    0.0000 C   0  0  0  0  0  0  0  0  0  0  0  0
    2.0035    0.4125    0.0000 O   0  0  0  0  0  0  0  0  0  0  0  0
    2.7179   -0.8250    0.0000 C   0  0  0  0  0  0  0  0  0  0  0  0
    3.4324   -0.4125    0.0000 O   0  0  0  0  0  0  0  0  0  0  0  0
    4.1469   -0.8250    0.0000 C   0  0  0  0  0  0  0  0  0  0  0  0
    4.8614   -0.4125    0.0000 O   0  0  0  0  0  0  0  0  0  0  0  0
    4.8614    0.4125    0.0000 C   0  0  0  0  0  0  0  0  0  0  0  0
    5.5757    0.8250    0.0000 C   0  0  0  0  0  0  0  0  0  0  0  0
    6.2902    0.4125    0.0000 N   0  0  0  0  0  0  0  0  0  0  0  0
    5.5757    1.6500    0.0000 C   0  0  0  0  0  0  0  0  0  0  0  0
    4.8614    2.0624    0.0000 C   0  0  0  0  0  0  0  0  0  0  0  0
    4.8614    2.8874    0.0000 N   0  0  0  0  0  0  0  0  0  0  0  0
    4.1469    1.6500    0.0000 C   0  0  0  0  0  0  0  0  0  0  0  0
    3.4324    2.0624    0.0000 O   0  0  0  0  0  0  0  0  0  0  0  0
    4.1469    0.8250    0.0000 C   0  0  0  0  0  0  0  0  0  0  0  0
    3.4324    0.4125    0.0000 O   0  0  0  0  0  0  0  0  0  0  0  0
    4.1469   -1.6500    0.0000 C   0  0  0  0  0  0  0  0  0  0  0  0
    4.8614   -2.0624    0.0000 N   0  0  0  0  0  0  0  0  0  0  0  0
    3.4324   -2.0624    0.0000 C   0  0  0  0  0  0  0  0  0  0  0  0
    2.7179   -1.6500    0.0000 C   0  0  0  0  0  0  0  0  0  0  0  0
    2.0035   -2.0624    0.0000 O   0  0  0  0  0  0  0  0  0  0  0  0
    1.2891   -1.6500    0.0000 C   0  0  0  0  0  0  0  0  0  0  0  0
    0.5746   -2.0624    0.0000 O   0  0  0  0  0  0  0  0  0  0  0  0
   -0.1398   -1.6500    0.0000 C   0  0  0  0  0  0  0  0  0  0  0  0
   -0.1398   -0.8250    0.0000 O   0  0  0  0  0  0  0  0  0  0  0  0
   -0.8543   -0.4125    0.0000 C   0  0  0  0  0  0  0  0  0  0  0  0
   -0.8543    0.4125    0.0000 C   0  0  0  0  0  0  0  0  0  0  0  0
   -0.1398    0.8250    0.0000 O   0  0  0  0  0  0  0  0  0  0  0  0
   -1.5688   -0.8250    0.0000 C   0  0  0  0  0  0  0  0  0  0  0  0
   -2.2832   -0.4125    0.0000 N   0  0  0  0  0  0  0  0  0  0  0  0
   -1.5688   -1.6500    0.0000 C   0  0  0  0  0  0  0  0  0  0  0  0
   -2.2832   -2.0624    0.0000 O   0  0  0  0  0  0  0  0  0  0  0  0
   -0.8543   -2.0624    0.0000 C   0  0  0  0  0  0  0  0  0  0  0  0
   -0.8543   -2.8874    0.0000 O   0  0  0  0  0  0  0  0  0  0  0  0
  1  2  1  0      
  2  3  1  0      
  2  4  2  0      
  2  5  2  0      
  6  7  1  0      
  7  8  1  0      
  8  9  1  0      
  9 10  1  0      
  9 11  1  0      
 11 12  1  0      
 12 13  1  0      
 13 14  1  0      
 14 15  1  0      
 15 16  1  0      
 16 17  1  0      
 16 18  1  0      
 18 19  1  0      
 19 20  1  0      
 19 21  1  0      
 21 22  1  0      
 21 23  1  0      
 15 23  1  0      
 23 24  1  0      
 13 25  1  0      
 25 26  1  0      
 25 27  1  0      
 27 28  1  0      
 11 28  1  0      
 28 29  1  0      
 29 30  1  0      
  8 30  1  0      
 30 31  1  0      
 31 32  1  0      
 32 33  1  0      
 33 34  1  0      
 34 35  1  0      
 35 36  1  0      
 34 37  1  0      
 37 38  1  0      
 37 39  1  0      
 39 40  1  0      
 39 41  1  0      
 32 41  1  0      
 41 42  1  0      
M  END
>  <Bioactivity>
Apramycin sulfate is an aminoglycoside antibiotic mproduced by a strain of Streptomyces tenebrarius, used in veterinary practice.

>  <CAS>
65710-07-8

>  <Col>
6

>  <Formula>
C21H43N5O15S

>  <ID>
T1084

>  <Index>
155

>  <MOLENAME>
Apramycin sulfate

>  <MolWt>
637.66

>  <Pathways>
Microbiology & Virology

>  <Plate>
PLATE 002

>  <QR code>
1152411535

>  <Receptor>
16S rRNA

>  <Reference>
1. Woodcock J, et al. EMBO J. 1991 Oct; 10(10):3099-103.

>  <Row>
H

>  <SMILES>
OS(O)(=O)=O.CNC1C(O)C2OC(OC3C(N)CC(N)C(O)C3O)C(N)CC2OC1OC1OC(CO)C(N)C(O)C1O

>  <Target>
Antibiotic

>  <Weight>
10.4mg

$$$$
Lab-1.sdf
  ChemDraw05232018482D

 20 19  0  0  0  0  0  0  0  0999 V2000
    2.8578    1.2375    0.0000 N   0  0  0  0  0  0  0  0  0  0  0  0
    2.8578    0.4125    0.0000 C   0  0  0  0  0  0  0  0  0  0  0  0
    2.1434    0.0000    0.0000 C   0  0  0  0  0  0  0  0  0  0  0  0
    1.4289    0.4125    0.0000 C   0  0  0  0  0  0  0  0  0  0  0  0
    0.7144    0.0000    0.0000 C   0  0  0  0  0  0  0  0  0  0  0  0
    0.7144   -0.8250    0.0000 O   0  0  0  0  0  0  0  0  0  0  0  0
    0.0000    0.4125    0.0000 N   0  0  0  0  0  0  0  0  0  0  0  0
   -0.7144    0.0000    0.0000 C   0  0  0  0  0  0  0  0  0  0  0  0
   -0.7144   -0.8250    0.0000 C   0  0  0  0  0  0  0  0  0  0  0  0
   -1.4289   -1.2375    0.0000 S   0  0  0  0  0  0  0  0  0  0  0  0
   -1.4289    0.4125    0.0000 C   0  0  0  0  0  0  0  0  0  0  0  0
   -1.4289    1.2375    0.0000 O   0  0  0  0  0  0  0  0  0  0  0  0
   -2.1434    0.0000    0.0000 N   0  0  0  0  0  0  0  0  0  0  0  0
   -2.8578    0.4125    0.0000 C   0  0  0  0  0  0  0  0  0  0  0  0
   -3.5722    0.0000    0.0000 C   0  0  0  0  0  0  0  0  0  0  0  0
   -4.2867    0.4125    0.0000 O   0  0  0  0  0  0  0  0  0  0  0  0
   -3.5722   -0.8250    0.0000 O   0  0  0  0  0  0  0  0  0  0  0  0
    3.5722    0.0000    0.0000 C   0  0  0  0  0  0  0  0  0  0  0  0
    4.2867    0.4125    0.0000 O   0  0  0  0  0  0  0  0  0  0  0  0
    3.5722   -0.8250    0.0000 O   0  0  0  0  0  0  0  0  0  0  0  0
  1  2  1  0      
  2  3  1  0      
  3  4  1  0      
  4  5  1  0      
  5  6  2  0      
  5  7  1  0      
  7  8  1  0      
  8  9  1  0      
  9 10  1  0      
  8 11  1  0      
 11 12  2  0      
 11 13  1  0      
 13 14  1  0      
 14 15  1  0      
 15 16  1  0      
 15 17  2  0      
  2 18  1  0      
 18 19  1  0      
 18 20  2  0      
M  END
>  <Bioactivity>
A tripeptide with many roles in cells. It conjugates to drugs to make them more soluble for excretion, is a cofactor for some enzymes, is involved in protein disulfide bond rearrangement and reduces p
eroxides.

>  <CAS>
70-18-8

>  <Col>
7

>  <Formula>
C10H17N3O6S

>  <ID>
T1085

>  <Index>
156

>  <MOLENAME>
Glutathione

>  <MolWt>
307.33

>  <Pathways>
Metabolism

>  <Plate>
PLATE 002

>  <QR code>
1152411536

>  <Receptor>
Glutathione reductase

>  <Reference>
1. Messarah M, et al. C R Biol. 2007 Feb; 330(2):107-12. 

>  <Row>
H

>  <SMILES>
NC(CCC(=O)NC(CS)C(=O)NCC(O)=O)C(O)=O

>  <Target>
Glutathione reductase

>  <Weight>
10.2mg

$$$$
Lab-1.sdf
  ChemDraw05232018482D

 29 31  0  0  0  0  0  0  0  0999 V2000
   -2.9967   -1.9766    0.0000 C   0  0  0  0  0  0  0  0  0  0  0  0
   -2.1897   -1.8051    0.0000 C   0  0  0  0  0  0  0  0  0  0  0  0
   -1.9348   -1.0204    0.0000 C   0  0  0  0  0  0  0  0  0  0  0  0
   -1.6377   -2.4182    0.0000 C   0  0  0  0  0  0  0  0  0  0  0  0
   -1.8926   -3.2028    0.0000 C   0  0  0  0  0  0  0  0  0  0  0  0
   -0.8307   -2.2466    0.0000 C   0  0  0  0  0  0  0  0  0  0  0  0
   -0.2787   -2.8597    0.0000 C   0  0  0  0  0  0  0  0  0  0  0  0
    0.5282   -2.6882    0.0000 C   0  0  0  0  0  0  0  0  0  0  0  0
    1.0802   -3.3013    0.0000 C   0  0  0  0  0  0  0  0  0  0  0  0
    0.7831   -1.9036    0.0000 C   0  0  0  0  0  0  0  0  0  0  0  0
    0.2982   -1.2361    0.0000 C   0  0  0  0  0  0  0  0  0  0  0  0
    0.7831   -0.5687    0.0000 C   0  0  0  0  0  0  0  0  0  0  0  0
    1.5677   -0.8236    0.0000 C   0  0  0  0  0  0  0  0  0  0  0  0
    2.2822   -0.4112    0.0000 C   0  0  0  0  0  0  0  0  0  0  0  0
    2.9967   -0.8236    0.0000 C   0  0  0  0  0  0  0  0  0  0  0  0
    2.9967   -1.6486    0.0000 C   0  0  0  0  0  0  0  0  0  0  0  0
    2.2822   -2.0611    0.0000 C   0  0  0  0  0  0  0  0  0  0  0  0
    1.5677   -1.6486    0.0000 C   0  0  0  0  0  0  0  0  0  0  0  0
    1.4816   -2.4691    0.0000 C   0  0  0  0  0  0  0  0  0  0  0  0
    2.2822    0.4138    0.0000 C   0  0  0  0  0  0  0  0  0  0  0  0
    1.5677    0.8263    0.0000 C   0  0  0  0  0  0  0  0  0  0  0  0
    1.5677    1.6513    0.0000 C   0  0  0  0  0  0  0  0  0  0  0  0
    0.8533    2.0638    0.0000 C   0  0  0  0  0  0  0  0  0  0  0  0
    0.8533    2.8888    0.0000 C   0  0  0  0  0  0  0  0  0  0  0  0
    0.1388    3.3013    0.0000 O   0  0  0  0  0  0  0  0  0  0  0  0
    1.5677    3.3013    0.0000 C   0  0  0  0  0  0  0  0  0  0  0  0
    2.2822    2.8888    0.0000 C   0  0  0  0  0  0  0  0  0  0  0  0
    2.2822    2.0638    0.0000 C   0  0  0  0  0  0  0  0  0  0  0  0
    2.9967    1.6513    0.0000 C   0  0  0  0  0  0  0  0  0  0  0  0
  1  2  1  0      
  2  3  1  0      
  2  4  1  0      
  4  5  1  0      
  6  4  1  4      
  6  7  2  0      
  7  8  1  0      
  8  9  1  0      
  8 10  1  0      
 10 11  1  0      
 11 12  1  0      
 12 13  1  0      
 13 14  1  0      
 14 15  1  0      
 15 16  1  0      
 16 17  1  0      
 17 18  1  0      
 10 18  1  0      
 13 18  1  0      
 18 19  1  0      
 14 20  2  0      
 20 21  1  4      
 21 22  2  0      
 22 23  1  4      
 23 24  1  0      
 24 25  1  0      
 24 26  1  0      
 26 27  1  0      
 27 28  1  0      
 22 28  1  0      
 28 29  2  0      
M  END
>  <Bioactivity>
Vitamin D2 has a strong inhibitory effect against bladder tumor promotion by sodium saccharin and induces cell differentiation in leukemia cells. Vitamin D2 is an inhibitor of DNA Polymerase.

>  <CAS>
50-14-6

>  <Col>
8

>  <Formula>
C28H44O

>  <ID>
T1086

>  <Index>
157

>  <MOLENAME>
Vitamin D2

>  <MolWt>
396.65

>  <Pathways>
DNA Damage/DNA Repair; Vitamin

>  <Plate>
PLATE 002

>  <QR code>
1152411537

>  <Receptor>
DNA Polymerase ; VD3 receptor

>  <Reference>
1. Mizushina Y, et al. J Pharmacol Sci. 2003 Jul;92(3):283-90.

>  <Row>
H

>  <SMILES>
CC(C)C(C)C=CC(C)C1CCC2C(CCCC12C)=CC=C1CC(O)CCC1=C

>  <Target>
DNA synthesis inhibitor; VD

>  <Weight>
10.1mg

$$$$
Lab-1.sdf
  ChemDraw05232018482D

 47 49  0  0  0  0  0  0  0  0999 V2000
   -4.7417   -1.1532    0.0000 O   0  0  0  0  0  0  0  0  0  0  0  0
   -4.7417   -0.3282    0.0000 S   0  0  0  0  0  0  0  0  0  0  0  0
   -4.7417    0.4968    0.0000 O   0  0  0  0  0  0  0  0  0  0  0  0
   -3.9167   -0.3282    0.0000 O   0  0  0  0  0  0  0  0  0  0  0  0
   -5.5667   -0.3282    0.0000 O   0  0  0  0  0  0  0  0  0  0  0  0
    5.5667    1.9771    0.0000 N   0  0  0  0  0  0  0  0  0  0  0  0
    4.8523    1.5646    0.0000 C   0  0  0  0  0  0  0  0  0  0  0  0
    4.1378    1.9771    0.0000 C   0  0  0  0  0  0  0  0  0  0  0  0
    3.4233    1.5646    0.0000 O   0  0  0  0  0  0  0  0  0  0  0  0
    2.7088    1.9771    0.0000 C   0  0  0  0  0  0  0  0  0  0  0  0
    1.9944    1.5646    0.0000 O   0  0  0  0  0  0  0  0  0  0  0  0
    1.9944    0.7396    0.0000 C   0  0  0  0  0  0  0  0  0  0  0  0
    1.3269    0.2547    0.0000 C   0  0  0  0  0  0  0  0  0  0  0  0
    0.5423    0.5096    0.0000 C   0  0  0  0  0  0  0  0  0  0  0  0
    0.3708    1.3166    0.0000 O   0  0  0  0  0  0  0  0  0  0  0  0
    1.5819   -0.5299    0.0000 O   0  0  0  0  0  0  0  0  0  0  0  0
    2.4069   -0.5299    0.0000 C   0  0  0  0  0  0  0  0  0  0  0  0
    2.8918   -1.1974    0.0000 O   0  0  0  0  0  0  0  0  0  0  0  0
    2.5562   -1.9510    0.0000 C   0  0  0  0  0  0  0  0  0  0  0  0
    3.0412   -2.6185    0.0000 C   0  0  0  0  0  0  0  0  0  0  0  0
    3.8616   -2.5322    0.0000 O   0  0  0  0  0  0  0  0  0  0  0  0
    2.7056   -3.3722    0.0000 C   0  0  0  0  0  0  0  0  0  0  0  0
    3.1905   -4.0396    0.0000 N   0  0  0  0  0  0  0  0  0  0  0  0
    1.8851   -3.4584    0.0000 C   0  0  0  0  0  0  0  0  0  0  0  0
    1.4002   -2.7910    0.0000 C   0  0  0  0  0  0  0  0  0  0  0  0
    0.5797   -2.8772    0.0000 N   0  0  0  0  0  0  0  0  0  0  0  0
    1.7358   -2.0373    0.0000 C   0  0  0  0  0  0  0  0  0  0  0  0
    1.2508   -1.3698    0.0000 O   0  0  0  0  0  0  0  0  0  0  0  0
    0.4304   -1.4561    0.0000 C   0  0  0  0  0  0  0  0  0  0  0  0
    0.0948   -2.2097    0.0000 O   0  0  0  0  0  0  0  0  0  0  0  0
   -0.7257   -2.2960    0.0000 C   0  0  0  0  0  0  0  0  0  0  0  0
   -1.0611   -3.0497    0.0000 C   0  0  0  0  0  0  0  0  0  0  0  0
   -0.5762   -3.7171    0.0000 O   0  0  0  0  0  0  0  0  0  0  0  0
   -1.2106   -1.6285    0.0000 C   0  0  0  0  0  0  0  0  0  0  0  0
   -2.0310   -1.7148    0.0000 O   0  0  0  0  0  0  0  0  0  0  0  0
   -0.8750   -0.8749    0.0000 C   0  0  0  0  0  0  0  0  0  0  0  0
   -1.3600   -0.2074    0.0000 O   0  0  0  0  0  0  0  0  0  0  0  0
   -0.0545   -0.7886    0.0000 C   0  0  0  0  0  0  0  0  0  0  0  0
    0.2810   -0.0350    0.0000 N   0  0  0  0  0  0  0  0  0  0  0  0
    2.6618    0.2547    0.0000 C   0  0  0  0  0  0  0  0  0  0  0  0
    3.4464    0.5096    0.0000 O   0  0  0  0  0  0  0  0  0  0  0  0
    2.7088    2.8021    0.0000 C   0  0  0  0  0  0  0  0  0  0  0  0
    1.9944    3.2146    0.0000 N   0  0  0  0  0  0  0  0  0  0  0  0
    3.4233    3.2146    0.0000 C   0  0  0  0  0  0  0  0  0  0  0  0
    3.4233    4.0396    0.0000 O   0  0  0  0  0  0  0  0  0  0  0  0
    4.1378    2.8021    0.0000 C   0  0  0  0  0  0  0  0  0  0  0  0
    4.8523    3.2146    0.0000 O   0  0  0  0  0  0  0  0  0  0  0  0
  1  2  1  0      
  2  3  1  0      
  2  4  2  0      
  2  5  2  0      
  6  7  1  0      
  7  8  1  0      
  8  9  1  0      
  9 10  1  0      
 10 11  1  0      
 11 12  1  0      
 12 13  1  0      
 13 14  1  0      
 14 15  1  0      
 13 16  1  0      
 16 17  1  0      
 17 18  1  0      
 18 19  1  0      
 19 20  1  0      
 20 21  1  0      
 20 22  1  0      
 22 23  1  0      
 22 24  1  0      
 24 25  1  0      
 25 26  1  0      
 25 27  1  0      
 19 27  1  0      
 27 28  1  0      
 28 29  1  0      
 29 30  1  0      
 30 31  1  0      
 31 32  1  0      
 32 33  1  0      
 31 34  1  0      
 34 35  1  0      
 34 36  1  0      
 36 37  1  0      
 36 38  1  0      
 29 38  1  0      
 38 39  1  0      
 17 40  1  0      
 12 40  1  0      
 40 41  1  0      
 10 42  1  0      
 42 43  1  0      
 42 44  1  0      
 44 45  1  0      
 44 46  1  0      
  8 46  1  0      
 46 47  1  0      
M  END
>  <Bioactivity>
Paromomycin Sulfate is an aminoglycoside antibiotics inhibiting protein synthesis in non-resistant cells by binding to 16S ribosomal RNA.

>  <CAS>
1263-89-4

>  <Col>
9

>  <Formula>
C23H47N5O18S

>  <ID>
T1104

>  <Index>
158

>  <MOLENAME>
Paromomycin Sulfate

>  <MolWt>
713.71

>  <Pathways>
Microbiology & Virology

>  <Plate>
PLATE 002

>  <QR code>
1152411538

>  <Receptor>
16S rRNA

>  <Reference>
1. Davidson RN, et al. ParomomycinTrans R Soc Trop Med Hyg, 2009, 103(7), 653-660.

>  <Row>
H

>  <SMILES>
OS(O)(=O)=O.NCC1OC(OC2C(CO)OC(OC3C(O)C(N)CC(N)C3OC3OC(CO)C(O)C(O)C3N)C2O)C(N)C(O)C1O

>  <Target>
Antibiotic

>  <Weight>
10.3mg

$$$$
Lab-1.sdf
  ChemDraw05232018482D

 16 17  0  0  0  0  0  0  0  0999 V2000
   -3.4364    0.2192    0.0000 O   0  0  0  0  0  0  0  0  0  0  0  0
   -2.7220   -0.1932    0.0000 C   0  0  0  0  0  0  0  0  0  0  0  0
   -2.7220   -1.0182    0.0000 O   0  0  0  0  0  0  0  0  0  0  0  0
   -2.0076    0.2192    0.0000 C   0  0  0  0  0  0  0  0  0  0  0  0
   -1.2931   -0.1932    0.0000 C   0  0  0  0  0  0  0  0  0  0  0  0
   -0.5787    0.2192    0.0000 C   0  0  0  0  0  0  0  0  0  0  0  0
    0.1358   -0.1932    0.0000 C   0  0  0  0  0  0  0  0  0  0  0  0
    0.8503    0.2192    0.0000 C   0  0  0  0  0  0  0  0  0  0  0  0
    0.9365    1.0397    0.0000 S   0  0  0  0  0  0  0  0  0  0  0  0
    1.7435    1.2112    0.0000 C   0  0  0  0  0  0  0  0  0  0  0  0
    2.1560    0.4968    0.0000 C   0  0  0  0  0  0  0  0  0  0  0  0
    2.9096    0.1612    0.0000 N   0  0  0  0  0  0  0  0  0  0  0  0
    2.8233   -0.6592    0.0000 C   0  0  0  0  0  0  0  0  0  0  0  0
    3.4364   -1.2112    0.0000 O   0  0  0  0  0  0  0  0  0  0  0  0
    2.0165   -0.8307    0.0000 N   0  0  0  0  0  0  0  0  0  0  0  0
    1.6040   -0.1162    0.0000 C   0  0  0  0  0  0  0  0  0  0  0  0
  1  2  1  0      
  2  3  2  0      
  2  4  1  0      
  4  5  1  0      
  5  6  1  0      
  6  7  1  0      
  7  8  1  0      
  8  9  1  0      
  9 10  1  0      
 10 11  1  0      
 11 12  1  0      
 12 13  1  0      
 13 14  2  0      
 13 15  1  0      
 15 16  1  0      
  8 16  1  0      
 11 16  1  0      
M  END
>  <Bioactivity>
Biotin is a water-soluble B-vitamin and is necessary for cell growth, the production of fatty acids, and the metabolism of fats and amino acids.

>  <CAS>
58-85-5

>  <Col>
10

>  <Formula>
C10H16N2O3S

>  <ID>
T1116

>  <Index>
159

>  <MOLENAME>
D-Biotin

>  <MolWt>
244.31

>  <Pathways>
Vitamin

>  <Plate>
PLATE 002

>  <QR code>
1152411539

>  <Receptor>
VB7

>  <Reference>
1. G. Gabant, et al. J. Mass Spectrom. 2008; 43: 360?370

>  <Row>
H

>  <SMILES>
OC(=O)CCCCC1SCC2NC(=O)NC12

>  <Target>
VB

>  <Weight>
10.3mg

$$$$
Lab-1.sdf
  ChemDraw05232018482D

 30 34  0  0  0  0  0  0  0  0999 V2000
   -2.1434   -2.6812    0.0000 C   0  0  0  0  0  0  0  0  0  0  0  0
   -2.1434   -1.8562    0.0000 O   0  0  0  0  0  0  0  0  0  0  0  0
   -1.4289   -1.4437    0.0000 C   0  0  0  0  0  0  0  0  0  0  0  0
   -1.4289   -0.6188    0.0000 C   0  0  0  0  0  0  0  0  0  0  0  0
   -0.7145   -0.2062    0.0000 C   0  0  0  0  0  0  0  0  0  0  0  0
    0.0000   -0.6188    0.0000 C   0  0  0  0  0  0  0  0  0  0  0  0
    0.0000   -1.4437    0.0000 C   0  0  0  0  0  0  0  0  0  0  0  0
    0.7144   -1.8562    0.0000 O   0  0  0  0  0  0  0  0  0  0  0  0
    0.7144   -2.6812    0.0000 C   0  0  0  0  0  0  0  0  0  0  0  0
   -0.7145   -1.8562    0.0000 C   0  0  0  0  0  0  0  0  0  0  0  0
   -0.7145   -2.6812    0.0000 O   0  0  0  0  0  0  0  0  0  0  0  0
   -1.4289   -3.0937    0.0000 C   0  0  0  0  0  0  0  0  0  0  0  0
   -0.7145    0.6188    0.0000 C   0  0  0  0  0  0  0  0  0  0  0  0
   -1.4289    1.0312    0.0000 C   0  0  0  0  0  0  0  0  0  0  0  0
   -1.4289    1.8562    0.0000 C   0  0  0  0  0  0  0  0  0  0  0  0
   -2.2135    2.1111    0.0000 C   0  0  0  0  0  0  0  0  0  0  0  0
   -2.6984    1.4438    0.0000 O   0  0  0  0  0  0  0  0  0  0  0  0
   -2.2135    0.7763    0.0000 C   0  0  0  0  0  0  0  0  0  0  0  0
   -2.4684   -0.0083    0.0000 O   0  0  0  0  0  0  0  0  0  0  0  0
   -0.7145    2.2687    0.0000 C   0  0  0  0  0  0  0  0  0  0  0  0
   -0.7145    3.0937    0.0000 O   0  0  0  0  0  0  0  0  0  0  0  0
    0.0000    1.8562    0.0000 C   0  0  0  0  0  0  0  0  0  0  0  0
    0.7144    2.2687    0.0000 C   0  0  0  0  0  0  0  0  0  0  0  0
    1.4289    1.8562    0.0000 C   0  0  0  0  0  0  0  0  0  0  0  0
    1.4289    1.0312    0.0000 C   0  0  0  0  0  0  0  0  0  0  0  0
    2.2135    0.7763    0.0000 O   0  0  0  0  0  0  0  0  0  0  0  0
    2.6984    1.4438    0.0000 C   0  0  0  0  0  0  0  0  0  0  0  0
    2.2135    2.1111    0.0000 O   0  0  0  0  0  0  0  0  0  0  0  0
    0.7144    0.6188    0.0000 C   0  0  0  0  0  0  0  0  0  0  0  0
    0.0000    1.0312    0.0000 C   0  0  0  0  0  0  0  0  0  0  0  0
  1  2  1  0      
  2  3  1  0      
  3  4  2  0      
  4  5  1  0      
  5  6  2  0      
  6  7  1  0      
  7  8  1  0      
  8  9  1  0      
  7 10  2  0      
  3 10  1  0      
 10 11  1  0      
 11 12  1  0      
  5 13  1  0      
 13 14  1  0      
 14 15  1  0      
 15 16  1  0      
 16 17  1  0      
 17 18  1  0      
 14 18  1  0      
 18 19  2  0      
 15 20  1  0      
 20 21  1  0      
 20 22  1  0      
 22 23  2  0      
 23 24  1  0      
 24 25  2  0      
 25 26  1  0      
 26 27  1  0      
 27 28  1  0      
 24 28  1  0      
 25 29  1  0      
 29 30  2  0      
 13 30  1  0      
 22 30  1  0      
M  END
>  <Bioactivity>
Podophyllotoxin is a lignan (LIGNANS) found in PODOPHYLLIN resin from the roots of PODOPHYLLUM plants. It is a potent spindle poison, toxic if taken internally, and has been used as a cathartic. It is
 very irritating to skin and mucous membranes, has keratolytic actions, has been used to treat warts and keratoses, and may have antineoplastic properties, as do some of its congeners and derivatives.

>  <CAS>
518-28-5

>  <Col>
11

>  <Formula>
C22H22O8

>  <ID>
T1121

>  <Index>
160

>  <MOLENAME>
Podophyllotoxin

>  <MolWt>
414.41

>  <Pathways>
Cell Cycle/Checkpoint

>  <Plate>
PLATE 002

>  <QR code>
1152411540

>  <Receptor>
Microtubule/Tubulin; Topoisomerase II 

>  <Reference>
1. Zhang YL, et al. J Nat Prod. 1992 Aug; 55(8):1100-11. 

>  <Row>
H

>  <SMILES>
COC1=CC(=CC(OC)=C1OC)C1C2C(COC2=O)C(O)C2=CC3=C(OCO3)C=C12

>  <Target>
Microtubule Associated inhibitor

>  <Weight>
10.3mg

$$$$
Lab-1.sdf
  ChemDraw05232018482D

136143  0  0  0  0  0  0  0  0999 V2000
   -8.8150   -1.6950    0.0000 C   0  0  0  0  0  0  0  0  0  0  0  0
   -8.7472   -0.8727    0.0000 C   0  0  0  0  0  0  0  0  0  0  0  0
   -8.0012   -0.5204    0.0000 C   0  0  0  0  0  0  0  0  0  0  0  0
   -9.4253   -0.4029    0.0000 C   0  0  0  0  0  0  0  0  0  0  0  0
   -9.3575    0.4194    0.0000 C   0  0  0  0  0  0  0  0  0  0  0  0
  -10.0356    0.8892    0.0000 N   0  0  0  0  0  0  0  0  0  0  0  0
  -10.7816    0.5369    0.0000 C   0  0  0  0  0  0  0  0  0  0  0  0
  -10.8494   -0.2855    0.0000 O   0  0  0  0  0  0  0  0  0  0  0  0
  -11.4597    1.0067    0.0000 C   0  0  0  0  0  0  0  0  0  0  0  0
  -11.3919    1.8289    0.0000 C   0  0  0  0  0  0  0  0  0  0  0  0
  -12.2057    0.6543    0.0000 N   0  0  0  0  0  0  0  0  0  0  0  0
  -12.8838    1.1241    0.0000 C   0  0  0  0  0  0  0  0  0  0  0  0
  -12.8160    1.9464    0.0000 O   0  0  0  0  0  0  0  0  0  0  0  0
  -13.6298    0.7718    0.0000 C   0  0  0  0  0  0  0  0  0  0  0  0
  -14.3079    1.2416    0.0000 N   0  0  0  0  0  0  0  0  0  0  0  0
  -15.0539    0.8892    0.0000 C   0  0  0  0  0  0  0  0  0  0  0  0
  -15.1217    0.0670    0.0000 O   0  0  0  0  0  0  0  0  0  0  0  0
  -15.7321    1.3591    0.0000 C   0  0  0  0  0  0  0  0  0  0  0  0
  -16.4780    1.0067    0.0000 N   0  0  0  0  0  0  0  0  0  0  0  0
  -17.1562    1.4765    0.0000 C   0  0  0  0  0  0  0  0  0  0  0  0
  -17.9021    1.1241    0.0000 O   0  0  0  0  0  0  0  0  0  0  0  0
  -15.6642    2.1813    0.0000 C   0  0  0  0  0  0  0  0  0  0  0  0
  -16.3424    2.6511    0.0000 C   0  0  0  0  0  0  0  0  0  0  0  0
  -14.9183    2.5336    0.0000 C   0  0  0  0  0  0  0  0  0  0  0  0
   -8.6115    0.7718    0.0000 C   0  0  0  0  0  0  0  0  0  0  0  0
   -8.5437    1.5940    0.0000 O   0  0  0  0  0  0  0  0  0  0  0  0
   -7.9334    0.3019    0.0000 N   0  0  0  0  0  0  0  0  0  0  0  0
   -7.1874    0.6543    0.0000 C   0  0  0  0  0  0  0  0  0  0  0  0
   -7.1196    1.4765    0.0000 C   0  0  0  0  0  0  0  0  0  0  0  0
   -6.5093    0.1845    0.0000 C   0  0  0  0  0  0  0  0  0  0  0  0
   -6.5771   -0.6378    0.0000 O   0  0  0  0  0  0  0  0  0  0  0  0
   -5.7633    0.5369    0.0000 N   0  0  0  0  0  0  0  0  0  0  0  0
   -5.0852    0.0670    0.0000 C   0  0  0  0  0  0  0  0  0  0  0  0
   -5.1530   -0.7553    0.0000 C   0  0  0  0  0  0  0  0  0  0  0  0
   -4.4748   -1.2251    0.0000 C   0  0  0  0  0  0  0  0  0  0  0  0
   -5.8989   -1.1077    0.0000 C   0  0  0  0  0  0  0  0  0  0  0  0
   -4.3392    0.4194    0.0000 C   0  0  0  0  0  0  0  0  0  0  0  0
   -4.2714    1.2416    0.0000 O   0  0  0  0  0  0  0  0  0  0  0  0
   -3.6611   -0.0504    0.0000 N   0  0  0  0  0  0  0  0  0  0  0  0
   -2.9151    0.3019    0.0000 C   0  0  0  0  0  0  0  0  0  0  0  0
   -2.8473    1.1241    0.0000 C   0  0  0  0  0  0  0  0  0  0  0  0
   -2.1013    1.4765    0.0000 C   0  0  0  0  0  0  0  0  0  0  0  0
   -3.5254    1.5940    0.0000 C   0  0  0  0  0  0  0  0  0  0  0  0
   -2.2370   -0.1679    0.0000 C   0  0  0  0  0  0  0  0  0  0  0  0
   -2.3048   -0.9902    0.0000 O   0  0  0  0  0  0  0  0  0  0  0  0
   -1.4910    0.1845    0.0000 N   0  0  0  0  0  0  0  0  0  0  0  0
   -0.8128   -0.2855    0.0000 C   0  0  0  0  0  0  0  0  0  0  0  0
   -0.8807   -1.1077    0.0000 C   0  0  0  0  0  0  0  0  0  0  0  0
   -0.2025   -1.5775    0.0000 C   0  0  0  0  0  0  0  0  0  0  0  0
   -1.6266   -1.4600    0.0000 C   0  0  0  0  0  0  0  0  0  0  0  0
   -0.0669    0.0670    0.0000 C   0  0  0  0  0  0  0  0  0  0  0  0
    0.0009    0.8892    0.0000 O   0  0  0  0  0  0  0  0  0  0  0  0
    0.6113   -0.4029    0.0000 N   0  0  0  0  0  0  0  0  0  0  0  0
    1.3572   -0.0504    0.0000 C   0  0  0  0  0  0  0  0  0  0  0  0
    1.4250    0.7718    0.0000 C   0  0  0  0  0  0  0  0  0  0  0  0
    2.1710    1.1241    0.0000 C   0  0  0  0  0  0  0  0  0  0  0  0
    2.8945    0.7278    0.0000 C   0  0  0  0  0  0  0  0  0  0  0  0
    3.4951    1.2934    0.0000 N   0  0  0  0  0  0  0  0  0  0  0  0
    3.1427    2.0394    0.0000 C   0  0  0  0  0  0  0  0  0  0  0  0
    3.4613    2.8004    0.0000 C   0  0  0  0  0  0  0  0  0  0  0  0
    2.9615    3.4568    0.0000 C   0  0  0  0  0  0  0  0  0  0  0  0
    2.1432    3.3522    0.0000 C   0  0  0  0  0  0  0  0  0  0  0  0
    1.8246    2.5912    0.0000 C   0  0  0  0  0  0  0  0  0  0  0  0
    2.3244    1.9348    0.0000 C   0  0  0  0  0  0  0  0  0  0  0  0
    2.0354   -0.5204    0.0000 C   0  0  0  0  0  0  0  0  0  0  0  0
    1.9676   -1.3426    0.0000 O   0  0  0  0  0  0  0  0  0  0  0  0
    2.7813   -0.1679    0.0000 N   0  0  0  0  0  0  0  0  0  0  0  0
    3.4595   -0.6378    0.0000 C   0  0  0  0  0  0  0  0  0  0  0  0
    3.3917   -1.4600    0.0000 C   0  0  0  0  0  0  0  0  0  0  0  0
    4.0698   -1.9299    0.0000 C   0  0  0  0  0  0  0  0  0  0  0  0
    4.8158   -1.5775    0.0000 C   0  0  0  0  0  0  0  0  0  0  0  0
    4.0020   -2.7521    0.0000 C   0  0  0  0  0  0  0  0  0  0  0  0
    4.2054   -0.2855    0.0000 C   0  0  0  0  0  0  0  0  0  0  0  0
    4.2732    0.5369    0.0000 O   0  0  0  0  0  0  0  0  0  0  0  0
    4.8836   -0.7553    0.0000 N   0  0  0  0  0  0  0  0  0  0  0  0
    5.6295   -0.4029    0.0000 C   0  0  0  0  0  0  0  0  0  0  0  0
    5.6974    0.4194    0.0000 C   0  0  0  0  0  0  0  0  0  0  0  0
    6.4433    0.7718    0.0000 C   0  0  0  0  0  0  0  0  0  0  0  0
    7.1669    0.3754    0.0000 C   0  0  0  0  0  0  0  0  0  0  0  0
    7.7674    0.9410    0.0000 N   0  0  0  0  0  0  0  0  0  0  0  0
    7.4150    1.6870    0.0000 C   0  0  0  0  0  0  0  0  0  0  0  0
    7.7336    2.4480    0.0000 C   0  0  0  0  0  0  0  0  0  0  0  0
    7.2338    3.1044    0.0000 C   0  0  0  0  0  0  0  0  0  0  0  0
    6.4155    2.9998    0.0000 C   0  0  0  0  0  0  0  0  0  0  0  0
    6.0969    2.2388    0.0000 C   0  0  0  0  0  0  0  0  0  0  0  0
    6.5967    1.5824    0.0000 C   0  0  0  0  0  0  0  0  0  0  0  0
    6.3077   -0.8727    0.0000 C   0  0  0  0  0  0  0  0  0  0  0  0
    6.2399   -1.6950    0.0000 O   0  0  0  0  0  0  0  0  0  0  0  0
    7.0536   -0.5204    0.0000 N   0  0  0  0  0  0  0  0  0  0  0  0
    7.7318   -0.9902    0.0000 C   0  0  0  0  0  0  0  0  0  0  0  0
    7.6640   -1.8124    0.0000 C   0  0  0  0  0  0  0  0  0  0  0  0
    8.3421   -2.2822    0.0000 C   0  0  0  0  0  0  0  0  0  0  0  0
    9.0881   -1.9299    0.0000 C   0  0  0  0  0  0  0  0  0  0  0  0
    8.2743   -3.1045    0.0000 C   0  0  0  0  0  0  0  0  0  0  0  0
    8.4778   -0.6378    0.0000 C   0  0  0  0  0  0  0  0  0  0  0  0
    8.5456    0.1845    0.0000 O   0  0  0  0  0  0  0  0  0  0  0  0
    9.1559   -1.1077    0.0000 N   0  0  0  0  0  0  0  0  0  0  0  0
    9.9019   -0.7553    0.0000 C   0  0  0  0  0  0  0  0  0  0  0  0
    9.9697    0.0670    0.0000 C   0  0  0  0  0  0  0  0  0  0  0  0
   10.7156    0.4194    0.0000 C   0  0  0  0  0  0  0  0  0  0  0  0
   11.4392    0.0229    0.0000 C   0  0  0  0  0  0  0  0  0  0  0  0
   12.0397    0.5887    0.0000 N   0  0  0  0  0  0  0  0  0  0  0  0
   11.6874    1.3346    0.0000 C   0  0  0  0  0  0  0  0  0  0  0  0
   12.0059    2.0956    0.0000 C   0  0  0  0  0  0  0  0  0  0  0  0
   11.5062    2.7520    0.0000 C   0  0  0  0  0  0  0  0  0  0  0  0
   10.6878    2.6474    0.0000 C   0  0  0  0  0  0  0  0  0  0  0  0
   10.3693    1.8864    0.0000 C   0  0  0  0  0  0  0  0  0  0  0  0
   10.8690    1.2300    0.0000 C   0  0  0  0  0  0  0  0  0  0  0  0
   10.5800   -1.2251    0.0000 C   0  0  0  0  0  0  0  0  0  0  0  0
   10.5122   -2.0473    0.0000 O   0  0  0  0  0  0  0  0  0  0  0  0
   11.3260   -0.8727    0.0000 N   0  0  0  0  0  0  0  0  0  0  0  0
   12.0041   -1.3426    0.0000 C   0  0  0  0  0  0  0  0  0  0  0  0
   11.9363   -2.1648    0.0000 C   0  0  0  0  0  0  0  0  0  0  0  0
   12.6144   -2.6346    0.0000 C   0  0  0  0  0  0  0  0  0  0  0  0
   13.3604   -2.2822    0.0000 C   0  0  0  0  0  0  0  0  0  0  0  0
   12.5466   -3.4568    0.0000 C   0  0  0  0  0  0  0  0  0  0  0  0
   12.7501   -0.9902    0.0000 C   0  0  0  0  0  0  0  0  0  0  0  0
   12.8179   -0.1679    0.0000 O   0  0  0  0  0  0  0  0  0  0  0  0
   13.4282   -1.4600    0.0000 N   0  0  0  0  0  0  0  0  0  0  0  0
   14.1742   -1.1077    0.0000 C   0  0  0  0  0  0  0  0  0  0  0  0
   14.8523   -1.5775    0.0000 C   0  0  0  0  0  0  0  0  0  0  0  0
   15.5983   -1.2251    0.0000 C   0  0  0  0  0  0  0  0  0  0  0  0
   15.7517   -0.4144    0.0000 C   0  0  0  0  0  0  0  0  0  0  0  0
   16.5700   -0.3099    0.0000 N   0  0  0  0  0  0  0  0  0  0  0  0
   16.9224   -1.0559    0.0000 C   0  0  0  0  0  0  0  0  0  0  0  0
   17.7125   -1.2931    0.0000 C   0  0  0  0  0  0  0  0  0  0  0  0
   17.9021   -2.0961    0.0000 C   0  0  0  0  0  0  0  0  0  0  0  0
   17.3015   -2.6617    0.0000 C   0  0  0  0  0  0  0  0  0  0  0  0
   16.5114   -2.4244    0.0000 C   0  0  0  0  0  0  0  0  0  0  0  0
   16.3218   -1.6215    0.0000 C   0  0  0  0  0  0  0  0  0  0  0  0
   14.2420   -0.2855    0.0000 C   0  0  0  0  0  0  0  0  0  0  0  0
   14.9880    0.0670    0.0000 O   0  0  0  0  0  0  0  0  0  0  0  0
   13.5638    0.1845    0.0000 N   0  0  0  0  0  0  0  0  0  0  0  0
   13.6317    1.0067    0.0000 C   0  0  0  0  0  0  0  0  0  0  0  0
   12.9535    1.4765    0.0000 C   0  0  0  0  0  0  0  0  0  0  0  0
   13.0213    2.2987    0.0000 O   0  0  0  0  0  0  0  0  0  0  0  0
  1  2  1  0      
  2  3  1  0      
  2  4  1  0      
  4  5  1  0      
  5  6  1  0      
  6  7  1  0      
  7  8  2  0      
  7  9  1  0      
  9 10  1  0      
  9 11  1  0      
 11 12  1  0      
 12 13  2  0      
 12 14  1  0      
 14 15  1  0      
 15 16  1  0      
 16 17  2  0      
 16 18  1  0      
 18 19  1  0      
 19 20  1  0      
 20 21  2  0      
 18 22  1  0      
 22 23  1  0      
 22 24  1  0      
  5 25  1  0      
 25 26  2  0      
 25 27  1  0      
 27 28  1  0      
 28 29  1  0      
 28 30  1  0      
 30 31  2  0      
 30 32  1  0      
 32 33  1  0      
 33 34  1  0      
 34 35  1  0      
 34 36  1  0      
 33 37  1  0      
 37 38  2  0      
 37 39  1  0      
 39 40  1  0      
 40 41  1  0      
 41 42  1  0      
 41 43  1  0      
 40 44  1  0      
 44 45  2  0      
 44 46  1  0      
 46 47  1  0      
 47 48  1  0      
 48 49  1  0      
 48 50  1  0      
 47 51  1  0      
 51 52  2  0      
 51 53  1  0      
 53 54  1  0      
 54 55  1  0      
 55 56  1  0      
 56 57  2  0      
 57 58  1  0      
 58 59  1  0      
 59 60  2  0      
 60 61  1  0      
 61 62  2  0      
 62 63  1  0      
 63 64  2  0      
 56 64  1  0      
 59 64  1  0      
 54 65  1  0      
 65 66  2  0      
 65 67  1  0      
 67 68  1  0      
 68 69  1  0      
 69 70  1  0      
 70 71  1  0      
 70 72  1  0      
 68 73  1  0      
 73 74  2  0      
 73 75  1  0      
 75 76  1  0      
 76 77  1  0      
 77 78  1  0      
 78 79  2  0      
 79 80  1  0      
 80 81  1  0      
 81 82  2  0      
 82 83  1  0      
 83 84  2  0      
 84 85  1  0      
 85 86  2  0      
 78 86  1  0      
 81 86  1  0      
 76 87  1  0      
 87 88  2  0      
 87 89  1  0      
 89 90  1  0      
 90 91  1  0      
 91 92  1  0      
 92 93  1  0      
 92 94  1  0      
 90 95  1  0      
 95 96  2  0      
 95 97  1  0      
 97 98  1  0      
 98 99  1  0      
 99100  1  0      
100101  2  0      
101102  1  0      
102103  1  0      
103104  2  0      
104105  1  0      
105106  2  0      
106107  1  0      
107108  2  0      
100108  1  0      
103108  1  0      
 98109  1  0      
109110  2  0      
109111  1  0      
111112  1  0      
112113  1  0      
113114  1  0      
114115  1  0      
114116  1  0      
112117  1  0      
117118  2  0      
117119  1  0      
119120  1  0      
120121  1  0      
121122  1  0      
122123  2  0      
123124  1  0      
124125  1  0      
125126  2  0      
126127  1  0      
127128  2  0      
128129  1  0      
129130  2  0      
122130  1  0      
125130  1  0      
120131  1  0      
131132  2  0      
131133  1  0      
133134  1  0      
134135  1  0      
135136  1  0      
M  END
>  <Bioactivity>
A group of peptide antibiotics from BACILLUS brevis. Gramicidin C or S is a cyclic, ten-amino acid polypeptide and gramicidins A, B, D are linear. Gramicidin is one of the two principal components of 
TYROTHRICIN.

>  <CAS>
1405-97-6

>  <Col>
2

>  <Formula>
C99H140N20O17

>  <ID>
T1130

>  <Index>
161

>  <MOLENAME>
Gramicidin

>  <MolWt>
1882.34

>  <Pathways>
Immunology/Inflammation; Microbiology & Virology

>  <Plate>
PLATE 003

>  <QR code>
1151477057

>  <Receptor>
MRP1

>  <Reference>
1. Nagy H, et al. Biochem Biophys Res Commun. 2004 Mar 19;315(4):942-9.

>  <Row>
A

>  <SMILES>
CC(C)CC(NC(=O)C(C)NC(=O)CNC(=O)C(NC=O)C(C)C)C(=O)NC(C)C(=O)NC(C(C)C)C(=O)NC(C(C)C)C(=O)NC(C(C)C)C(=O)NC(CC1=CNC2=CC=CC=C12)C(=O)NC(CC(C)C)C(=O)NC(CC1=CNC2=CC=CC=C12)C(=O)NC(CC(C)C)C(=O)NC(CC1=CNC2=CC=
CC=C12)C(=O)NC(CC(C)C)C(=O)NC(CC1=CNC2=CC=CC=C12)C(=O)NCCO

>  <Target>
Antibacterial; MRP inhibitor

>  <Weight>
10.2mg

$$$$
Lab-1.sdf
  ChemDraw05232018482D

 37 38  0  0  0  0  0  0  0  0999 V2000
   -7.3128    0.1505    0.0000 O   0  0  0  0  0  0  0  0  0  0  0  0
    7.3128   -0.9763    0.0000 Na  0  3  0  0  0  0  0  0  0  0  0  0
    0.8827    1.0862    0.0000 C   0  0  0  0  0  0  0  0  0  0  0  0
    0.8827    0.2612    0.0000 C   0  0  0  0  0  0  0  0  0  0  0  0
    1.5972   -0.1513    0.0000 C   0  0  0  0  0  0  0  0  0  0  0  0
    2.3116    0.2612    0.0000 C   0  0  0  0  0  0  0  0  0  0  0  0
    3.0261   -0.1513    0.0000 C   0  0  0  0  0  0  0  0  0  0  0  0
    3.0261   -0.9763    0.0000 O   0  0  0  0  0  0  0  0  0  0  0  0
    3.7406    0.2612    0.0000 N   0  0  0  0  0  0  0  0  0  0  0  0
    4.4549   -0.1513    0.0000 C   0  0  0  0  0  0  0  0  0  0  0  0
    5.1694    0.2612    0.0000 C   0  0  0  0  0  0  0  0  0  0  0  0
    5.8839   -0.1513    0.0000 S   0  0  0  0  0  0  0  0  0  0  0  0
    6.5984   -0.5638    0.0000 O   0  5  0  0  0  0  0  0  0  0  0  0
    6.2964    0.5632    0.0000 O   0  0  0  0  0  0  0  0  0  0  0  0
    5.4714   -0.8657    0.0000 O   0  0  0  0  0  0  0  0  0  0  0  0
    0.1682   -0.1513    0.0000 C   0  0  0  0  0  0  0  0  0  0  0  0
    0.0820   -0.9717    0.0000 C   0  0  0  0  0  0  0  0  0  0  0  0
   -0.7249   -1.1433    0.0000 C   0  0  0  0  0  0  0  0  0  0  0  0
   -1.1374   -0.4288    0.0000 C   0  0  0  0  0  0  0  0  0  0  0  0
   -1.9444   -0.2573    0.0000 C   0  0  0  0  0  0  0  0  0  0  0  0
   -2.4964   -0.8704    0.0000 C   0  0  0  0  0  0  0  0  0  0  0  0
   -2.2415   -1.6550    0.0000 O   0  0  0  0  0  0  0  0  0  0  0  0
   -3.3034   -0.6988    0.0000 C   0  0  0  0  0  0  0  0  0  0  0  0
   -3.5583    0.0858    0.0000 C   0  0  0  0  0  0  0  0  0  0  0  0
   -4.3652    0.2573    0.0000 C   0  0  0  0  0  0  0  0  0  0  0  0
   -4.6201    1.0419    0.0000 C   0  0  0  0  0  0  0  0  0  0  0  0
   -5.4271    1.2135    0.0000 O   0  0  0  0  0  0  0  0  0  0  0  0
   -4.0681    1.6550    0.0000 C   0  0  0  0  0  0  0  0  0  0  0  0
   -3.2612    1.4835    0.0000 C   0  0  0  0  0  0  0  0  0  0  0  0
   -3.0063    0.6989    0.0000 C   0  0  0  0  0  0  0  0  0  0  0  0
   -2.4542    1.3120    0.0000 C   0  0  0  0  0  0  0  0  0  0  0  0
   -2.1993    0.5274    0.0000 C   0  0  0  0  0  0  0  0  0  0  0  0
   -1.6473    1.1404    0.0000 C   0  0  0  0  0  0  0  0  0  0  0  0
   -0.8403    0.9689    0.0000 C   0  0  0  0  0  0  0  0  0  0  0  0
   -0.2883    1.5820    0.0000 O   0  0  0  0  0  0  0  0  0  0  0  0
   -0.5854    0.1843    0.0000 C   0  0  0  0  0  0  0  0  0  0  0  0
    0.0276    0.7363    0.0000 C   0  0  0  0  0  0  0  0  0  0  0  0
  3  4  1  0      
  4  5  1  0      
  5  6  1  0      
  6  7  1  0      
  7  8  2  0      
  7  9  1  0      
  9 10  1  0      
 10 11  1  0      
 11 12  1  0      
 12 13  1  0      
 12 14  2  0      
 12 15  2  0      
  4 16  1  0      
 16 17  1  0      
 17 18  1  0      
 18 19  1  0      
 19 20  1  0      
 20 21  1  0      
 21 22  1  0      
 21 23  1  0      
 23 24  1  0      
 24 25  1  0      
 25 26  1  0      
 26 27  1  0      
 26 28  1  0      
 28 29  1  0      
 29 30  1  0      
 24 30  1  0      
 30 31  1  0      
 30 32  1  0      
 20 32  1  0      
 32 33  1  0      
 33 34  1  0      
 34 35  1  0      
 34 36  1  0      
 16 36  1  0      
 19 36  1  0      
 36 37  1  0      
M  CHG  2   2   1  13  -1
M  END
>  <Bioactivity>
The product of conjugation of cholic acid with taurine. the sodium salt is the chief ingredient of the bile of carnivorous animals. It acts as a detergent to solubilize fats for absorption and is itse
lf absorbed. It is used as a cholagogue and cholerectic. 

>  <CAS>
345909-26-4

>  <Col>
3

>  <Formula>
C26H44NNaO7S?xH2O

>  <ID>
T1138

>  <Index>
162

>  <MOLENAME>
Taurocholic acid sodium salt hydrate

>  <MolWt>
537.68

>  <Pathways>
Metabolism

>  <Plate>
PLATE 003

>  <QR code>
1151477056

>  <Receptor>
Bile salt-activated lipase; Gastrotropin

>  <Reference>
1. Khatun Z, et al. J Control Release. 2014 Mar 10;177:64-73.

>  <Row>
A

>  <SMILES>
O.[Na+].CC(CCC(=O)NCCS([O-])(=O)=O)C1CCC2C3C(O)CC4CC(O)CCC4(C)C3CC(O)C12C

>  <Target>
Biliation inhibitor

>  <Weight>
10.3mg

$$$$
Lab-1.sdf
  ChemDraw05232018482D

 23 26  0  0  0  0  0  0  0  0999 V2000
   -3.4435    0.2812    0.0000 Cl  0  0  0  0  0  0  0  0  0  0  0  0
    0.5856    1.6501    0.0000 O   0  0  0  0  0  0  0  0  0  0  0  0
    0.5856    0.8251    0.0000 C   0  0  0  0  0  0  0  0  0  0  0  0
    1.3001    0.4126    0.0000 N   0  0  0  0  0  0  0  0  0  0  0  0
    1.3001   -0.4124    0.0000 C   0  0  0  0  0  0  0  0  0  0  0  0
    0.5856   -0.8250    0.0000 C   0  0  0  0  0  0  0  0  0  0  0  0
    0.5856   -1.6500    0.0000 C   0  0  0  0  0  0  0  0  0  0  0  0
   -0.1288   -2.0625    0.0000 C   0  0  0  0  0  0  0  0  0  0  0  0
   -0.8433   -1.6500    0.0000 C   0  0  0  0  0  0  0  0  0  0  0  0
   -0.8433   -0.8250    0.0000 C   0  0  0  0  0  0  0  0  0  0  0  0
   -1.5578   -0.4125    0.0000 C   0  0  0  0  0  0  0  0  0  0  0  0
   -1.5578    0.4125    0.0000 C   0  0  0  0  0  0  0  0  0  0  0  0
   -0.8433    0.8250    0.0000 C   0  0  0  0  0  0  0  0  0  0  0  0
   -0.1288    0.4125    0.0000 C   0  0  0  0  0  0  0  0  0  0  0  0
   -0.1288   -0.4125    0.0000 C   0  0  0  0  0  0  0  0  0  0  0  0
    2.0146    0.8251    0.0000 C   0  0  0  0  0  0  0  0  0  0  0  0
    2.0146    1.6501    0.0000 C   0  0  0  0  0  0  0  0  0  0  0  0
    2.7290    2.0625    0.0000 N   0  0  0  0  0  0  0  0  0  0  0  0
    3.4435    1.6501    0.0000 C   0  0  0  0  0  0  0  0  0  0  0  0
    3.4435    0.8251    0.0000 C   0  0  0  0  0  0  0  0  0  0  0  0
    2.7290    0.4126    0.0000 C   0  0  0  0  0  0  0  0  0  0  0  0
    2.8665    0.9625    0.0000 C   0  0  0  0  0  0  0  0  0  0  0  0
    2.8665    1.5125    0.0000 C   0  0  0  0  0  0  0  0  0  0  0  0
  2  3  2  0      
  3  4  1  0      
  4  5  1  0      
  5  6  1  0      
  6  7  1  0      
  7  8  1  0      
  8  9  1  0      
  9 10  1  0      
 10 11  2  0      
 11 12  1  0      
 12 13  2  0      
 13 14  1  0      
  3 14  1  0      
 14 15  2  0      
  6 15  1  0      
 10 15  1  0      
  4 16  1  0      
 16 17  1  0      
 17 18  1  0      
 18 19  1  0      
 19 20  1  0      
 20 21  1  0      
 16 21  1  0      
 21 22  1  0      
 22 23  1  0      
 18 23  1  0      
M  END
>  <Bioactivity>
Palonosetron (INN, trade name Aloxi) is a 5-HT3 antagonist used in the prevention and treatment of chemotherapy-induced nausea and vomiting (CINV). It is the most effective of the 5-HT3 antagonists in
 controlling delayed CINV nausea and vomiting that appear more than 24 hours after the first dose of a course of chemotherapy and is the only drug of its class approved for this use by the U.S. Food a
nd Drug Administration. As of 2008, it is the most recent 5-HT3 antagonist to enter clinical use. 

>  <CAS>
135729-62-3

>  <Col>
4

>  <Formula>
C19H24N2O?HCl

>  <ID>
T1156

>  <Index>
163

>  <MOLENAME>
Palonosetron hydrochloride

>  <MolWt>
332.87

>  <Pathways>
Neuroscience

>  <Plate>
PLATE 003

>  <QR code>
1151477055

>  <Receptor>
5-HT Receptor

>  <Reference>
1. Grunberg SM, Koeller JM. Expert Opin PharmacOthers. 2003 Dec;4(12):2297-303.

>  <Row>
A

>  <SMILES>
Cl.O=C1N(CC2CCCC3=CC=CC1=C23)C1CN2CCC1CC2

>  <Target>
5-HT Receptor antagonist

>  <Weight>
10.2mg

$$$$
Lab-1.sdf
  ChemDraw05232018482D

 37 40  0  0  0  0  0  0  0  0999 V2000
    3.5750    1.9309    0.0000 C   0  0  0  0  0  0  0  0  0  0  0  0
    3.2947    1.1550    0.0000 C   0  0  0  0  0  0  0  0  0  0  0  0
    3.8265    0.5243    0.0000 C   0  0  0  0  0  0  0  0  0  0  0  0
    4.6387    0.6695    0.0000 O   0  0  0  0  0  0  0  0  0  0  0  0
    3.5462   -0.2516    0.0000 C   0  0  0  0  0  0  0  0  0  0  0  0
    2.7341   -0.3968    0.0000 C   0  0  0  0  0  0  0  0  0  0  0  0
    2.2023    0.2339    0.0000 C   0  0  0  0  0  0  0  0  0  0  0  0
    1.9220   -0.5420    0.0000 C   0  0  0  0  0  0  0  0  0  0  0  0
    2.4826    1.0098    0.0000 C   0  0  0  0  0  0  0  0  0  0  0  0
    1.9508    1.6405    0.0000 C   0  0  0  0  0  0  0  0  0  0  0  0
    1.1387    1.4953    0.0000 C   0  0  0  0  0  0  0  0  0  0  0  0
    0.8584    0.7194    0.0000 C   0  0  0  0  0  0  0  0  0  0  0  0
    0.3265    1.3501    0.0000 C   0  0  0  0  0  0  0  0  0  0  0  0
    1.3902    0.0887    0.0000 C   0  0  0  0  0  0  0  0  0  0  0  0
    1.1099   -0.6873    0.0000 C   0  0  0  0  0  0  0  0  0  0  0  0
    1.6417   -1.3180    0.0000 O   0  0  0  0  0  0  0  0  0  0  0  0
    0.2978   -0.8325    0.0000 C   0  0  0  0  0  0  0  0  0  0  0  0
   -0.2342   -0.2018    0.0000 C   0  0  0  0  0  0  0  0  0  0  0  0
   -1.0587   -0.1750    0.0000 C   0  0  0  0  0  0  0  0  0  0  0  0
   -1.2880    0.6175    0.0000 C   0  0  0  0  0  0  0  0  0  0  0  0
   -0.6052    1.0805    0.0000 C   0  0  0  0  0  0  0  0  0  0  0  0
    0.0462    0.5742    0.0000 C   0  0  0  0  0  0  0  0  0  0  0  0
   -0.0134    1.3970    0.0000 C   0  0  0  0  0  0  0  0  0  0  0  0
   -2.0640    0.8978    0.0000 O   0  0  0  0  0  0  0  0  0  0  0  0
   -2.2092    1.7100    0.0000 C   0  0  0  0  0  0  0  0  0  0  0  0
   -2.9851    1.9903    0.0000 C   0  0  0  0  0  0  0  0  0  0  0  0
   -1.5785    2.2419    0.0000 O   0  0  0  0  0  0  0  0  0  0  0  0
   -1.5651   -0.8263    0.0000 C   0  0  0  0  0  0  0  0  0  0  0  0
   -2.3823   -0.7134    0.0000 C   0  0  0  0  0  0  0  0  0  0  0  0
   -2.6932    0.0507    0.0000 C   0  0  0  0  0  0  0  0  0  0  0  0
   -3.5105    0.1636    0.0000 C   0  0  0  0  0  0  0  0  0  0  0  0
   -3.8214    0.9278    0.0000 C   0  0  0  0  0  0  0  0  0  0  0  0
   -4.6387    1.0406    0.0000 C   0  0  0  0  0  0  0  0  0  0  0  0
   -3.3150    1.5791    0.0000 C   0  0  0  0  0  0  0  0  0  0  0  0
   -1.2542   -1.5905    0.0000 C   0  0  0  0  0  0  0  0  0  0  0  0
   -0.4369   -1.7033    0.0000 O   0  0  0  0  0  0  0  0  0  0  0  0
   -1.7605   -2.2419    0.0000 O   0  0  0  0  0  0  0  0  0  0  0  0
  1  2  1  0      
  2  3  1  0      
  3  4  1  0      
  3  5  1  0      
  5  6  1  0      
  6  7  1  0      
  7  8  1  0      
  7  9  1  0      
  2  9  1  0      
  9 10  1  0      
 10 11  1  0      
 11 12  1  0      
 12 13  1  0      
 12 14  1  0      
  7 14  1  0      
 14 15  1  0      
 15 16  1  0      
 15 17  1  0      
 17 18  1  0      
 19 18  1  4      
 19 20  1  0      
 20 21  1  0      
 21 22  1  0      
 12 22  1  0      
 18 22  1  0      
 22 23  1  0      
 20 24  1  0      
 24 25  1  0      
 25 26  1  0      
 25 27  2  0      
 19 28  2  0      
 28 29  1  0      
 29 30  1  0      
 30 31  1  0      
 31 32  2  0      
 32 33  1  0      
 32 34  1  0      
 28 35  1  0      
 35 36  1  0      
 35 37  2  0      
M  END
>  <Bioactivity>
An antibiotic isolated from the fermentation broth of Fusidium coccineum. (From Merck Index, 11th ed) It acts by inhibiting translocation during protein synthesis.

>  <CAS>
6990-06-3

>  <Col>
5

>  <Formula>
C31H48O6

>  <ID>
T1160

>  <Index>
164

>  <MOLENAME>
Fusidine

>  <MolWt>
516.72

>  <Pathways>
Microbiology & Virology

>  <Plate>
PLATE 003

>  <QR code>
1151477054

>  <Receptor>
EEFG; CAT

>  <Reference>
1. Day PJ, et al. Biochemistry. 1995 May 16;34(19):6416-22.

>  <Row>
A

>  <SMILES>
CC1C(O)CCC2(C)C1CCC1(C)C2C(O)CC2C(C(CC12C)OC(C)=O)=C(CCC=C(C)C)C(O)=O

>  <Target>
Antibiotic

>  <Weight>
10.4mg

$$$$
Lab-1.sdf
  ChemDraw05232018482D

 34 36  0  0  0  0  0  0  0  0999 V2000
   -4.7509 -899.4673    0.0000 Cl  0  0  0  0  0  0  0  0  0  0  0  0
   -0.9648  901.0982    0.0000 C   0  0  0  0  0  0  0  0  0  0  0  0
   -0.2504 -901.0982    0.0000 N   0  0  0  0  0  0  0  0  0  0  0  0
    0.4641  901.0982    0.0000 C   0  0  0  0  0  0  0  0  0  0  0  0
   -0.2504 -900.2732    0.0000 C   0  0  0  0  0  0  0  0  0  0  0  0
    0.4641 -899.8607    0.0000 C   0  0  0  0  0  0  0  0  0  0  0  0
    1.1785 -900.2732    0.0000 C   0  0  0  0  0  0  0  0  0  0  0  0
    1.8930 -899.8607    0.0000 C   0  0  0  0  0  0  0  0  0  0  0  0
    1.8930 -899.0357    0.0000 C   0  0  0  0  0  0  0  0  0  0  0  0
    2.6074 -898.6232    0.0000 C   0  0  0  0  0  0  0  0  0  0  0  0
    2.6074 -897.7982    0.0000 O   0  0  0  0  0  0  0  0  0  0  0  0
    3.3219 -899.0357    0.0000 C   0  0  0  0  0  0  0  0  0  0  0  0
    4.0364 -898.6232    0.0000 C   0  0  0  0  0  0  0  0  0  0  0  0
    4.0364 -897.7982    0.0000 O   0  0  0  0  0  0  0  0  0  0  0  0
    4.7509 -899.0357    0.0000 C   0  0  0  0  0  0  0  0  0  0  0  0
    4.7509 -899.8607    0.0000 C   0  0  0  0  0  0  0  0  0  0  0  0
    4.0364 -900.2732    0.0000 C   0  0  0  0  0  0  0  0  0  0  0  0
    4.0364 -901.0982    0.0000 Cl  0  0  0  0  0  0  0  0  0  0  0  0
    3.3219 -899.8607    0.0000 C   0  0  0  0  0  0  0  0  0  0  0  0
    2.6074 -900.2732    0.0000 C   0  0  0  0  0  0  0  0  0  0  0  0
    2.9948 -901.0016    0.0000 C   0  0  0  0  0  0  0  0  0  0  0  0
    2.2201 -901.0016    0.0000 O   0  0  0  0  0  0  0  0  0  0  0  0
    1.1785 -898.6232    0.0000 C   0  0  0  0  0  0  0  0  0  0  0  0
    1.1785 -897.7982    0.0000 O   0  0  0  0  0  0  0  0  0  0  0  0
    0.4641 -899.0357    0.0000 C   0  0  0  0  0  0  0  0  0  0  0  0
    0.4641 -898.2107    0.0000 O   0  0  0  0  0  0  0  0  0  0  0  0
   -0.2504 -898.6232    0.0000 C   0  0  0  0  0  0  0  0  0  0  0  0
   -0.2504 -897.7982    0.0000 O   0  0  0  0  0  0  0  0  0  0  0  0
   -0.9648 -899.0357    0.0000 C   0  0  0  0  0  0  0  0  0  0  0  0
   -1.6793 -898.6232    0.0000 C   0  0  0  0  0  0  0  0  0  0  0  0
   -2.3938 -899.0357    0.0000 N   0  0  0  0  0  0  0  0  0  0  0  0
   -1.6793 -897.7982    0.0000 O   0  0  0  0  0  0  0  0  0  0  0  0
   -0.9648 -899.8607    0.0000 C   0  0  0  0  0  0  0  0  0  0  0  0
   -1.6793 -900.2732    0.0000 O   0  0  0  0  0  0  0  0  0  0  0  0
  2  3  1  0      
  3  4  1  0      
  3  5  1  0      
  5  6  1  0      
  6  7  1  0      
  7  8  1  0      
  8  9  1  0      
  9 10  2  0      
 10 11  1  0      
 10 12  1  0      
 12 13  2  0      
 13 14  1  0      
 13 15  1  0      
 15 16  2  0      
 16 17  1  0      
 17 18  1  0      
 17 19  2  0      
 12 19  1  0      
 19 20  1  0      
  8 20  1  0      
 20 21  1  0      
 20 22  1  0      
  9 23  1  0      
 23 24  2  0      
 23 25  1  0      
  6 25  1  0      
 25 26  1  0      
 25 27  1  0      
 27 28  1  0      
 27 29  2  0      
 29 30  1  0      
 30 31  1  0      
 30 32  2  0      
 29 33  1  0      
  5 33  1  0      
 33 34  2  0      
M  END
>  <Bioactivity>
Chlortetracycline hydrochloride is the first identified tetracycline antibiotic.

>  <CAS>
64-72-2

>  <Col>
6

>  <Formula>
C22H23ClN2O8?HCl

>  <ID>
T1304

>  <Index>
165

>  <MOLENAME>
Chlortetracycline hydrochloride

>  <MolWt>
515.35

>  <Pathways>
Microbiology & Virology

>  <Plate>
PLATE 003

>  <QR code>
1151477053

>  <Receptor>
30S ribosomal protein

>  <Reference>
1. Chopra I, et al. J Antimicrob ChemOthers, 1992, 29(3), 245-277.

>  <Row>
A

>  <SMILES>
Cl.CN(C)C1C2CC3C(=C(O)C4=C(O)C=CC(Cl)=C4C3(C)O)C(=O)C2(O)C(O)=C(C(N)=O)C1=O

>  <Target>
Antibiotic

>  <Weight>
10.3mg

$$$$
Lab-1.sdf
  ChemDraw05232018482D

 22 25  0  0  0  0  0  0  0  0999 V2000
   -1.0717    0.0000    0.0000 O   0  0  0  0  0  0  0  0  0  0  0  0
   -0.3573    0.0000    0.0000 C   0  0  0  0  0  0  0  0  0  0  0  0
    0.3572    0.0000    0.0000 C   0  0  0  0  0  0  0  0  0  0  0  0
    0.3572    0.0000    0.0000 C   0  0  0  0  0  0  0  0  0  0  0  0
    1.0717    0.0000    0.0000 C   0  0  0  0  0  0  0  0  0  0  0  0
    1.2092    0.0000    0.0000 C   0  0  0  0  0  0  0  0  0  0  0  0
    1.2092    0.0000    0.0000 C   0  0  0  0  0  0  0  0  0  0  0  0
    1.0717    0.0000    0.0000 N   0  0  0  0  0  0  0  0  0  0  0  0
    1.7862    0.0000    0.0000 C   0  0  0  0  0  0  0  0  0  0  0  0
    1.7862    0.0000    0.0000 C   0  0  0  0  0  0  0  0  0  0  0  0
    2.5006    0.0000    0.0000 C   0  0  0  0  0  0  0  0  0  0  0  0
    2.5006    0.0000    0.0000 C   0  0  0  0  0  0  0  0  0  0  0  0
   -0.3573    0.0000    0.0000 C   0  0  0  0  0  0  0  0  0  0  0  0
    0.3572    0.0000    0.0000 C   0  0  0  0  0  0  0  0  0  0  0  0
    0.3572    0.0000    0.0000 C   0  0  0  0  0  0  0  0  0  0  0  0
   -0.3573    0.0000    0.0000 N   0  0  0  0  0  0  0  0  0  0  0  0
   -1.0717    0.0000    0.0000 C   0  0  0  0  0  0  0  0  0  0  0  0
   -1.7861    0.0000    0.0000 C   0  0  0  0  0  0  0  0  0  0  0  0
   -2.5006    0.0000    0.0000 C   0  0  0  0  0  0  0  0  0  0  0  0
   -2.5006    0.0000    0.0000 C   0  0  0  0  0  0  0  0  0  0  0  0
   -1.7861    0.0000    0.0000 C   0  0  0  0  0  0  0  0  0  0  0  0
   -1.0717    0.0000    0.0000 C   0  0  0  0  0  0  0  0  0  0  0  0
  1  2  1  0      
  2  3  1  0      
  3  4  1  0      
  4  5  1  0      
  5  6  1  0      
  6  7  1  0      
  7  8  1  0      
  3  8  1  0      
  8  9  1  0      
  9 10  1  0      
  5 10  1  0      
 10 11  1  0      
 11 12  2  0      
  2 13  1  0      
 13 14  2  0      
 14 15  1  0      
 15 16  2  0      
 16 17  1  0      
 17 18  2  0      
 18 19  1  0      
 19 20  2  0      
 20 21  1  0      
 21 22  2  0      
 13 22  1  0      
 17 22  1  0      
M  END
>  <Bioactivity>
Cinchonidine is an alkaloid found in Cinchona officinalis. It is used in asymmetric synthesis in organic chemistry. It is a stereoisomer and pseudo-enantiomer of cinchonine.

>  <CAS>
485-71-2

>  <Col>
7

>  <Formula>
C19H22N2O

>  <ID>
T1317

>  <Index>
166

>  <MOLENAME>
Cinchonidine

>  <MolWt>
294.39

>  <Pathways>
Others

>  <Plate>
PLATE 003

>  <QR code>
1151477052

>  <Receptor>
Others

>  <Reference>
1. Fukiya K, et al. Drug Metab Dispos. 2010 Feb; 38(2):302-7. 

>  <Row>
A

>  <SMILES>
OC(C1CC2CCN1CC2C=C)C1=CC=NC2=CC=CC=C12

>  <Target>
Others

>  <Weight>
9.9mg

$$$$
Lab-1.sdf
  ChemDraw05232018482D

 49 46  0  0  0  0  0  0  0  0999 V2000
   -7.1198    0.0000    0.0000 O   0  0  0  0  0  0  0  0  0  0  0  0
   -4.7626    0.0000    0.0000 O   0  0  0  0  0  0  0  0  0  0  0  0
   -2.4054    0.0000    0.0000 O   0  0  0  0  0  0  0  0  0  0  0  0
   -7.1198    0.0000    0.0000 O   0  0  0  0  0  0  0  0  0  0  0  0
   -4.7626    0.0000    0.0000 O   0  0  0  0  0  0  0  0  0  0  0  0
   -2.4054    0.0000    0.0000 O   0  0  0  0  0  0  0  0  0  0  0  0
   -7.1198    0.0000    0.0000 O   0  0  0  0  0  0  0  0  0  0  0  0
   -4.7626    0.0000    0.0000 O   0  0  0  0  0  0  0  0  0  0  0  0
   -0.6919    0.0000    0.0000 C   0  0  0  0  0  0  0  0  0  0  0  0
   -0.9722    0.0000    0.0000 C   0  0  0  0  0  0  0  0  0  0  0  0
   -0.4404    0.0000    0.0000 O   0  0  0  0  0  0  0  0  0  0  0  0
   -0.7207    0.0000    0.0000 C   0  0  0  0  0  0  0  0  0  0  0  0
   -0.1889    0.0000    0.0000 O   0  0  0  0  0  0  0  0  0  0  0  0
    0.6233    0.0000    0.0000 C   0  0  0  0  0  0  0  0  0  0  0  0
    0.9036    0.0000    0.0000 C   0  0  0  0  0  0  0  0  0  0  0  0
    1.7157    0.0000    0.0000 C   0  0  0  0  0  0  0  0  0  0  0  0
    1.9960    0.0000    0.0000 O   0  0  0  0  0  0  0  0  0  0  0  0
    2.2476    0.0000    0.0000 C   0  0  0  0  0  0  0  0  0  0  0  0
    2.5279    0.0000    0.0000 C   0  0  0  0  0  0  0  0  0  0  0  0
    2.4684    0.0000    0.0000 O   0  0  0  0  0  0  0  0  0  0  0  0
    3.0597    0.0000    0.0000 C   0  0  0  0  0  0  0  0  0  0  0  0
    3.3400    0.0000    0.0000 C   0  0  0  0  0  0  0  0  0  0  0  0
    2.8082    0.0000    0.0000 O   0  0  0  0  0  0  0  0  0  0  0  0
    4.1521    0.0000    0.0000 C   0  0  0  0  0  0  0  0  0  0  0  0
    4.6839    0.0000    0.0000 C   0  0  0  0  0  0  0  0  0  0  0  0
    5.0438    0.0000    0.0000 C   0  0  0  0  0  0  0  0  0  0  0  0
    5.5085    0.0000    0.0000 C   0  0  0  0  0  0  0  0  0  0  0  0
    5.7378    0.0000    0.0000 C   0  0  0  0  0  0  0  0  0  0  0  0
    5.0550    0.0000    0.0000 C   0  0  0  0  0  0  0  0  0  0  0  0
    4.4037    0.0000    0.0000 C   0  0  0  0  0  0  0  0  0  0  0  0
    4.2060    0.0000    0.0000 O   0  0  0  0  0  0  0  0  0  0  0  0
    3.5915    0.0000    0.0000 C   0  0  0  0  0  0  0  0  0  0  0  0
    3.3112    0.0000    0.0000 C   0  0  0  0  0  0  0  0  0  0  0  0
    2.4991    0.0000    0.0000 C   0  0  0  0  0  0  0  0  0  0  0  0
    1.9672    0.0000    0.0000 C   0  0  0  0  0  0  0  0  0  0  0  0
    1.6869    0.0000    0.0000 O   0  0  0  0  0  0  0  0  0  0  0  0
    1.1551    0.0000    0.0000 C   0  0  0  0  0  0  0  0  0  0  0  0
    6.0149    0.0000    0.0000 C   0  0  0  0  0  0  0  0  0  0  0  0
    5.7856    0.0000    0.0000 C   0  0  0  0  0  0  0  0  0  0  0  0
    6.4684    0.0000    0.0000 C   0  0  0  0  0  0  0  0  0  0  0  0
    6.4953    0.0000    0.0000 O   0  0  0  0  0  0  0  0  0  0  0  0
    7.1198    0.0000    0.0000 O   0  0  0  0  0  0  0  0  0  0  0  0
    6.8395    0.0000    0.0000 C   0  0  0  0  0  0  0  0  0  0  0  0
   -1.5328    0.0000    0.0000 C   0  0  0  0  0  0  0  0  0  0  0  0
   -1.8131    0.0000    0.0000 O   0  0  0  0  0  0  0  0  0  0  0  0
   -2.0646    0.0000    0.0000 C   0  0  0  0  0  0  0  0  0  0  0  0
   -2.8768    0.0000    0.0000 O   0  0  0  0  0  0  0  0  0  0  0  0
   -1.7843    0.0000    0.0000 C   0  0  0  0  0  0  0  0  0  0  0  0
   -2.3162    0.0000    0.0000 O   0  0  0  0  0  0  0  0  0  0  0  0
  9 10  1  0      
 10 11  1  0      
 11 12  1  0      
 12 13  1  0      
 13 14  1  0      
 14 15  1  0      
 15 16  1  0      
 16 17  1  0      
 16 18  1  0      
 18 19  1  0      
 19 20  1  0      
 18 21  1  0      
 21 22  1  0      
 22 23  1  0      
 22 24  1  0      
 24 25  1  0      
 25 26  1  0      
 25 27  1  0      
 27 28  1  0      
 28 29  1  0      
 29 30  1  0      
 25 30  1  0      
 30 31  1  0      
 30 32  1  0      
 21 32  1  0      
 32 33  1  0      
 33 34  1  0      
 34 35  1  0      
 18 35  1  0      
 35 36  1  0      
 35 37  1  0      
 14 37  1  0      
 27 38  1  0      
 38 39  2  0      
 39 40  1  0      
 40 41  2  0      
 40 42  1  0      
 42 43  1  0      
 38 43  1  0      
 12 44  1  0      
 44 45  1  0      
 44 46  1  0      
 46 47  1  0      
 46 48  1  0      
 10 48  1  0      
 48 49  1  0      
M  END
>  <Bioactivity>
ouabain,A cardioactive glycoside consisting of rhamnose and ouabagenin, obtained from the seeds of Strophanthus gratus and other plants of the Apocynaceae; used like digitalis. It is commonly used in 
cell biological studies as an inhibitor of the NA-K(+)-exchanging ATPase. 

>  <CAS>
11018-89-6

>  <Col>
8

>  <Formula>
C29H44O12?8H2O

>  <ID>
T1318

>  <Index>
167

>  <MOLENAME>
Ouabain octahydrate

>  <MolWt>
728.77

>  <Pathways>
Membrane Transporter/Ion Channel

>  <Plate>
PLATE 003

>  <QR code>
1151477051

>  <Receptor>
Na+/K+-ATPase

>  <Reference>
1. Mentre P, Debey P. Cell Mol Biol (Noisy-le-grand). 1999 Sep;45(6):781-91. 

>  <Row>
A

>  <SMILES>
O.O.O.O.O.O.O.O.CC1OC(OC2CC(O)C3(CO)C4C(O)CC5(C)C(CCC5(O)C4CCC3(O)C2)C2=CC(=O)OC2)C(O)C(O)C1O

>  <Target>
ATPase inhibitor

>  <Weight>
10.4mg

$$$$
Lab-1.sdf
  ChemDraw05232018482D

 21 21  0  0  0  0  0  0  0  0999 V2000
   -5.0011    0.0000    0.0000 C   0  0  0  0  0  0  0  0  0  0  0  0
   -4.2867    0.0000    0.0000 C   0  0  0  0  0  0  0  0  0  0  0  0
   -3.5722    0.0000    0.0000 C   0  0  0  0  0  0  0  0  0  0  0  0
   -2.8578    0.0000    0.0000 C   0  0  0  0  0  0  0  0  0  0  0  0
   -2.1433    0.0000    0.0000 C   0  0  0  0  0  0  0  0  0  0  0  0
   -1.4289    0.0000    0.0000 C   0  0  0  0  0  0  0  0  0  0  0  0
   -0.7145    0.0000    0.0000 C   0  0  0  0  0  0  0  0  0  0  0  0
    0.0000    0.0000    0.0000 C   0  0  0  0  0  0  0  0  0  0  0  0
    0.7145    0.0000    0.0000 C   0  0  0  0  0  0  0  0  0  0  0  0
    0.7145    0.0000    0.0000 O   0  0  0  0  0  0  0  0  0  0  0  0
    1.4290    0.0000    0.0000 N   0  0  0  0  0  0  0  0  0  0  0  0
    2.1433    0.0000    0.0000 C   0  0  0  0  0  0  0  0  0  0  0  0
    2.8578    0.0000    0.0000 C   0  0  0  0  0  0  0  0  0  0  0  0
    3.5723    0.0000    0.0000 C   0  0  0  0  0  0  0  0  0  0  0  0
    4.2867    0.0000    0.0000 C   0  0  0  0  0  0  0  0  0  0  0  0
    5.0011    0.0000    0.0000 O   0  0  0  0  0  0  0  0  0  0  0  0
    5.0011    0.0000    0.0000 C   0  0  0  0  0  0  0  0  0  0  0  0
    4.2867    0.0000    0.0000 C   0  0  0  0  0  0  0  0  0  0  0  0
    5.0011    0.0000    0.0000 O   0  0  0  0  0  0  0  0  0  0  0  0
    3.5723    0.0000    0.0000 C   0  0  0  0  0  0  0  0  0  0  0  0
    2.8578    0.0000    0.0000 C   0  0  0  0  0  0  0  0  0  0  0  0
  1  2  1  0      
  2  3  1  0      
  3  4  1  0      
  4  5  1  0      
  5  6  1  0      
  6  7  1  0      
  7  8  1  0      
  8  9  1  0      
  9 10  2  0      
  9 11  1  0      
 11 12  1  0      
 12 13  1  0      
 13 14  2  0      
 14 15  1  0      
 15 16  1  0      
 16 17  1  0      
 15 18  2  0      
 18 19  1  0      
 18 20  1  0      
 20 21  2  0      
 13 21  1  0      
M  END
>  <Bioactivity>
Nonivamide, also called pelargonic acid vanillylamide or PAVA, is an organic compound and a capsaicinoid. It is an amide of pelargonic acid (n-nonanoic acid) and vanillyl amine. It is present in chili
 peppers, but is commonly manufactured synthetically. It is more heat-stable than capsaicin.

>  <CAS>
2444-46-4

>  <Col>
9

>  <Formula>
C17H27NO3

>  <ID>
T1321

>  <Index>
168

>  <MOLENAME>
Nonivamide

>  <MolWt>
293.4

>  <Pathways>
Membrane Transporter/Ion Channel

>  <Plate>
PLATE 003

>  <QR code>
1151477050

>  <Receptor>
TRP Channel

>  <Reference>
1. Yeh JL, et al. Brain Res Bull. 1993;30(5-6):641-8.

>  <Row>
A

>  <SMILES>
CCCCCCCCC(=O)NCC1=CC(OC)=C(O)C=C1

>  <Target>
TRP/TRPV Channel inhibitor

>  <Weight>
10.2mg

$$$$
Lab-1.sdf
  ChemDraw05232018482D

 21 24  0  0  0  0  0  0  0  0999 V2000
   -2.6056    0.0000    0.0000 C   0  0  0  0  0  0  0  0  0  0  0  0
   -2.0062    0.0000    0.0000 O   0  0  0  0  0  0  0  0  0  0  0  0
   -1.2469    0.0000    0.0000 C   0  0  0  0  0  0  0  0  0  0  0  0
   -0.5627    0.0000    0.0000 O   0  0  0  0  0  0  0  0  0  0  0  0
    0.2281    0.0000    0.0000 C   0  0  0  0  0  0  0  0  0  0  0  0
    1.1330    0.0000    0.0000 O   0  0  0  0  0  0  0  0  0  0  0  0
    1.9405    0.0000    0.0000 C   0  0  0  0  0  0  0  0  0  0  0  0
    2.6056    0.0000    0.0000 C   0  0  0  0  0  0  0  0  0  0  0  0
    2.4118    0.0000    0.0000 C   0  0  0  0  0  0  0  0  0  0  0  0
    1.9375    0.0000    0.0000 C   0  0  0  0  0  0  0  0  0  0  0  0
    1.1055    0.0000    0.0000 C   0  0  0  0  0  0  0  0  0  0  0  0
    0.9924    0.0000    0.0000 C   0  0  0  0  0  0  0  0  0  0  0  0
    1.6605    0.0000    0.0000 C   0  0  0  0  0  0  0  0  0  0  0  0
    0.2947    0.0000    0.0000 C   0  0  0  0  0  0  0  0  0  0  0  0
   -0.2522    0.0000    0.0000 C   0  0  0  0  0  0  0  0  0  0  0  0
   -0.1589    0.0000    0.0000 C   0  0  0  0  0  0  0  0  0  0  0  0
   -0.9669    0.0000    0.0000 C   0  0  0  0  0  0  0  0  0  0  0  0
   -1.5105    0.0000    0.0000 C   0  0  0  0  0  0  0  0  0  0  0  0
    0.5614    0.0000    0.0000 C   0  0  0  0  0  0  0  0  0  0  0  0
    0.7929    0.0000    0.0000 O   0  0  0  0  0  0  0  0  0  0  0  0
    1.4976    0.0000    0.0000 O   0  0  0  0  0  0  0  0  0  0  0  0
  1  2  1  0      
  2  3  1  0      
  3  4  1  0      
  4  5  1  0      
  5  6  1  0      
  6  7  1  0      
  7  8  1  0      
  7  9  1  0      
  9 10  1  0      
 10 11  1  0      
 11 12  1  0      
 12 13  1  0      
 12 14  1  0      
 14 15  1  0      
 15 16  1  0      
 16 17  1  0      
  3 17  1  0      
 17 18  1  0      
 16 19  1  0      
  5 19  1  0      
 11 19  1  0      
 19 20  1  0      
 20 21  1  0      
  7 21  1  0      
M  END
>  <Bioactivity>
Artemether is an antimalarial agent used to treat acute uncomplicated malaria. It is administered in combination with lumefantrine for improved efficacy. This combination therapy exerts its effects ag
ainst the erythrocytic stages of Plasmodium spp. and may be used to treat infections caused by P. falciparum and unidentified Plasmodium species, including infections acquired in chloroquine-resistant
 areas. 

>  <CAS>
71963-77-4

>  <Col>
10

>  <Formula>
C16H26O5

>  <ID>
T1323

>  <Index>
169

>  <MOLENAME>
Artemether

>  <MolWt>
298.38

>  <Pathways>
Microbiology & Virology

>  <Plate>
PLATE 003

>  <QR code>
1151477049

>  <Receptor>
Others

>  <Reference>
1. Ma Y, et al. Antimicrob Agents ChemOthers. 2014 Oct;58(10):5658-65. 

>  <Row>
A

>  <SMILES>
COC1OC2OC3(C)CCC4C(C)CCC(C1C)C24OO3

>  <Target>
Antibiotic

>  <Weight>
10.1mg

$$$$
Lab-1.sdf
  ChemDraw05232018482D

 24 27  0  0  0  0  0  0  0  0999 V2000
   -2.8579    0.0000    0.0000 C   0  0  0  0  0  0  0  0  0  0  0  0
   -2.8579    0.0000    0.0000 C   0  0  0  0  0  0  0  0  0  0  0  0
   -2.1434    0.0000    0.0000 C   0  0  0  0  0  0  0  0  0  0  0  0
   -2.1434    0.0000    0.0000 C   0  0  0  0  0  0  0  0  0  0  0  0
   -1.4289    0.0000    0.0000 N   0  0  0  0  0  0  0  0  0  0  0  0
   -1.2914    0.0000    0.0000 C   0  0  0  0  0  0  0  0  0  0  0  0
   -1.2914    0.0000    0.0000 C   0  0  0  0  0  0  0  0  0  0  0  0
   -1.4289    0.0000    0.0000 C   0  0  0  0  0  0  0  0  0  0  0  0
   -0.7145    0.0000    0.0000 C   0  0  0  0  0  0  0  0  0  0  0  0
   -0.7145    0.0000    0.0000 C   0  0  0  0  0  0  0  0  0  0  0  0
   -0.0000    0.0000    0.0000 C   0  0  0  0  0  0  0  0  0  0  0  0
   -0.0000    0.0000    0.0000 O   0  0  0  0  0  0  0  0  0  0  0  0
    0.7145    0.0000    0.0000 C   0  0  0  0  0  0  0  0  0  0  0  0
    1.4289    0.0000    0.0000 C   0  0  0  0  0  0  0  0  0  0  0  0
    1.4289    0.0000    0.0000 C   0  0  0  0  0  0  0  0  0  0  0  0
    2.1434    0.0000    0.0000 C   0  0  0  0  0  0  0  0  0  0  0  0
    2.1434    0.0000    0.0000 O   0  0  0  0  0  0  0  0  0  0  0  0
    1.4289    0.0000    0.0000 C   0  0  0  0  0  0  0  0  0  0  0  0
    2.8579    0.0000    0.0000 C   0  0  0  0  0  0  0  0  0  0  0  0
    2.8579    0.0000    0.0000 C   0  0  0  0  0  0  0  0  0  0  0  0
    2.1434    0.0000    0.0000 C   0  0  0  0  0  0  0  0  0  0  0  0
    2.1434    0.0000    0.0000 N   0  0  0  0  0  0  0  0  0  0  0  0
    1.4289    0.0000    0.0000 C   0  0  0  0  0  0  0  0  0  0  0  0
    0.7145    0.0000    0.0000 C   0  0  0  0  0  0  0  0  0  0  0  0
  1  2  1  0      
  2  3  1  0      
  3  4  1  0      
  4  5  1  0      
  5  6  1  0      
  6  7  1  0      
  7  8  1  0      
  3  8  1  0      
  8  9  1  0      
  9 10  1  0      
  5 10  1  0      
 10 11  1  0      
 11 12  1  0      
 11 13  1  0      
 13 14  2  0      
 14 15  1  0      
 15 16  2  0      
 16 17  1  0      
 17 18  1  0      
 16 19  1  0      
 19 20  2  0      
 20 21  1  0      
 14 21  1  0      
 21 22  2  0      
 22 23  1  0      
 23 24  2  0      
 13 24  1  0      
M  END
>  <Bioactivity>
Dihydroquinidine is an organic compound and as a cinchona alkaloid closely related to quinine.

>  <CAS>
1435-55-8

>  <Col>
11

>  <Formula>
C20H26N2O2

>  <ID>
T1334

>  <Index>
170

>  <MOLENAME>
Hydroquinidine

>  <MolWt>
326.43

>  <Pathways>
Membrane Transporter/Ion Channel

>  <Plate>
PLATE 003

>  <QR code>
1151477048

>  <Receptor>
Sodium channel; Potassium Channel

>  <Reference>
1. Zhou Q, et al. J Chromatogr A. 2012 May 18;1238:60-7.

>  <Row>
A

>  <SMILES>
CCC1CN2CCC1CC2C(O)C1=C2C=C(OC)C=CC2=NC=C1

>  <Target>
Sodium Channel inhibitor; Potassium Channel inhibitor

>  <Weight>
10.3mg

$$$$
Lab-1.sdf
  ChemDraw05232018482D

 27 30  0  0  0  0  0  0  0  0999 V2000
   -3.9443    0.0000    0.0000 C   0  0  0  0  0  0  0  0  0  0  0  0
   -3.4380    0.0000    0.0000 C   0  0  0  0  0  0  0  0  0  0  0  0
   -2.7867    0.0000    0.0000 C   0  0  0  0  0  0  0  0  0  0  0  0
   -4.0893    0.0000    0.0000 C   0  0  0  0  0  0  0  0  0  0  0  0
   -2.9316    0.0000    0.0000 N   0  0  0  0  0  0  0  0  0  0  0  0
   -2.1144    0.0000    0.0000 C   0  0  0  0  0  0  0  0  0  0  0  0
   -1.8035    0.0000    0.0000 O   0  0  0  0  0  0  0  0  0  0  0  0
   -1.6080    0.0000    0.0000 C   0  0  0  0  0  0  0  0  0  0  0  0
   -1.8373    0.0000    0.0000 C   0  0  0  0  0  0  0  0  0  0  0  0
   -1.1545    0.0000    0.0000 C   0  0  0  0  0  0  0  0  0  0  0  0
   -0.5032    0.0000    0.0000 C   0  0  0  0  0  0  0  0  0  0  0  0
    0.3091    0.0000    0.0000 C   0  0  0  0  0  0  0  0  0  0  0  0
    0.5893    0.0000    0.0000 C   0  0  0  0  0  0  0  0  0  0  0  0
    1.4015    0.0000    0.0000 C   0  0  0  0  0  0  0  0  0  0  0  0
    1.9333    0.0000    0.0000 C   0  0  0  0  0  0  0  0  0  0  0  0
    2.7454    0.0000    0.0000 N   0  0  0  0  0  0  0  0  0  0  0  0
    3.2772    0.0000    0.0000 C   0  0  0  0  0  0  0  0  0  0  0  0
    4.0893    0.0000    0.0000 O   0  0  0  0  0  0  0  0  0  0  0  0
    2.9969    0.0000    0.0000 C   0  0  0  0  0  0  0  0  0  0  0  0
    2.1848    0.0000    0.0000 C   0  0  0  0  0  0  0  0  0  0  0  0
    1.6530    0.0000    0.0000 C   0  0  0  0  0  0  0  0  0  0  0  0
    1.3727    0.0000    0.0000 C   0  0  0  0  0  0  0  0  0  0  0  0
    0.8409    0.0000    0.0000 C   0  0  0  0  0  0  0  0  0  0  0  0
    0.5606    0.0000    0.0000 C   0  0  0  0  0  0  0  0  0  0  0  0
   -0.2516    0.0000    0.0000 C   0  0  0  0  0  0  0  0  0  0  0  0
   -0.7835    0.0000    0.0000 C   0  0  0  0  0  0  0  0  0  0  0  0
   -1.1433    0.0000    0.0000 C   0  0  0  0  0  0  0  0  0  0  0  0
  1  2  1  0      
  2  3  1  0      
  2  4  1  0      
  2  5  1  0      
  5  6  1  0      
  6  7  2  0      
  6  8  1  0      
  8  9  1  0      
  9 10  1  0      
 10 11  1  0      
 11 12  1  0      
 12 13  1  0      
 13 14  1  0      
 14 15  1  0      
 15 16  1  0      
 16 17  1  0      
 17 18  2  0      
 17 19  1  0      
 19 20  2  0      
 20 21  1  0      
 15 21  1  0      
 21 22  1  0      
 21 23  1  0      
 12 23  1  0      
 23 24  1  0      
 24 25  1  0      
 25 26  1  0      
  8 26  1  0      
 11 26  1  0      
 26 27  1  0      
M  END
>  <Bioactivity>
Finasteride is an orally active testosterone 5-alpha-reductase inhibitor (Ki= 10 nM).

>  <CAS>
98319-26-7

>  <Col>
2

>  <Formula>
C23H36N2O2

>  <ID>
T0488

>  <Index>
171

>  <MOLENAME>
Finasteride

>  <MolWt>
372.55

>  <Pathways>
Enzyme

>  <Plate>
PLATE 003

>  <QR code>
1151477036

>  <Receptor>
5-¦Á Reductase

>  <Reference>
1. Azzolina B, et al. J Steroid Biochem Mol Biol, 1997, 61(1-2), 55-64.

>  <Row>
B

>  <SMILES>
CC(C)(C)NC(=O)C1CCC2C3CCC4NC(=O)C=CC4(C)C3CCC12C

>  <Target>
Reductase inhibitor

>  <Weight>
10.3mg

$$$$
Lab-1.sdf
  ChemDraw05232018482D

 10 11  0  0  0  0  0  0  0  0999 V2000
    0.6347    0.0000    0.0000 O   0  0  0  0  0  0  0  0  0  0  0  0
    0.6347    0.0000    0.0000 C   0  0  0  0  0  0  0  0  0  0  0  0
    1.3492    0.0000    0.0000 N   0  0  0  0  0  0  0  0  0  0  0  0
    1.3492    0.0000    0.0000 C   0  0  0  0  0  0  0  0  0  0  0  0
    0.6347    0.0000    0.0000 N   0  0  0  0  0  0  0  0  0  0  0  0
   -0.0797    0.0000    0.0000 C   0  0  0  0  0  0  0  0  0  0  0  0
   -0.0797    0.0000    0.0000 C   0  0  0  0  0  0  0  0  0  0  0  0
   -0.8644    0.0000    0.0000 N   0  0  0  0  0  0  0  0  0  0  0  0
   -1.3492    0.0000    0.0000 C   0  0  0  0  0  0  0  0  0  0  0  0
   -0.8644    0.0000    0.0000 N   0  0  0  0  0  0  0  0  0  0  0  0
  1  2  2  0      
  2  3  1  0      
  3  4  2  0      
  4  5  1  0      
  5  6  1  0      
  6  7  2  0      
  2  7  1  0      
  7  8  1  0      
  8  9  1  0      
  9 10  2  0      
  6 10  1  0      
M  END
>  <Bioactivity>
A purine and a reaction intermediate in the metabolism of adenosine and in the formation of nucleic acids by the salvage pathway.

>  <CAS>
68-94-0

>  <Col>
3

>  <Formula>
C5H4N4O

>  <ID>
T1362

>  <Index>
172

>  <MOLENAME>
6-Hydroxypurine

>  <MolWt>
136.11

>  <Pathways>
Others

>  <Plate>
PLATE 003

>  <QR code>
1151477037

>  <Receptor>
Purine nucleoside phosphorylase

>  <Reference>
1. Overington JP, et al. Nat Rev Drug Discov. 2006 Dec;5(12):993-6.

>  <Row>
B

>  <SMILES>
O=C1N=CNC2=C1NC=N2

>  <Target>
Others

>  <Weight>
10.4mg

$$$$
Lab-1.sdf
  ChemDraw05232018482D

 12 12  0  0  0  0  0  0  0  0999 V2000
   -1.0717    0.0000    0.0000 C   0  0  0  0  0  0  0  0  0  0  0  0
   -1.0717    0.0000    0.0000 O   0  0  0  0  0  0  0  0  0  0  0  0
   -0.3572    0.0000    0.0000 C   0  0  0  0  0  0  0  0  0  0  0  0
    0.3572    0.0000    0.0000 O   0  0  0  0  0  0  0  0  0  0  0  0
   -0.3572    0.0000    0.0000 C   0  0  0  0  0  0  0  0  0  0  0  0
    0.3572    0.0000    0.0000 C   0  0  0  0  0  0  0  0  0  0  0  0
    0.3572    0.0000    0.0000 C   0  0  0  0  0  0  0  0  0  0  0  0
    1.0717    0.0000    0.0000 O   0  0  0  0  0  0  0  0  0  0  0  0
   -0.3572    0.0000    0.0000 C   0  0  0  0  0  0  0  0  0  0  0  0
   -0.3572    0.0000    0.0000 O   0  0  0  0  0  0  0  0  0  0  0  0
   -1.0717    0.0000    0.0000 C   0  0  0  0  0  0  0  0  0  0  0  0
   -1.0717    0.0000    0.0000 C   0  0  0  0  0  0  0  0  0  0  0  0
  1  2  1  0      
  2  3  1  0      
  3  4  2  0      
  3  5  1  0      
  5  6  2  0      
  6  7  1  0      
  7  8  1  0      
  7  9  2  0      
  9 10  1  0      
  9 11  1  0      
 11 12  2  0      
  5 12  1  0      
M  END
>  <Bioactivity>
Thermographic recording material with improved image tone

>  <CAS>
2150-43-8

>  <Col>
4

>  <Formula>
C8H8O4

>  <ID>
T1368

>  <Index>
173

>  <MOLENAME>
Methyl protocatechuate

>  <MolWt>
168.15

>  <Pathways>
Apoptosis; GPCR/G Protein

>  <Plate>
PLATE 003

>  <QR code>
1151477038

>  <Receptor>
Adenosine A2a receptor; H2O2 induced apoptosis

>  <Reference>
1. Zhang Z, et al. Neuroreport. 2015 Apr 15;26(6):367-73.

>  <Row>
B

>  <SMILES>
COC(=O)C1=CC(O)=C(O)C=C1

>  <Target>
Apoptosis inducer; Adenosine Receptor

>  <Weight>
10.4mg

$$$$
Lab-1.sdf
  ChemDraw05232018482D

 26 27  0  0  0  0  0  0  0  0999 V2000
   -4.0364    0.0000    0.0000 Cl  0  0  0  0  0  0  0  0  0  0  0  0
   -1.6793    0.0000    0.0000 C   0  0  0  0  0  0  0  0  0  0  0  0
   -1.6793    0.0000    0.0000 O   0  0  0  0  0  0  0  0  0  0  0  0
   -0.9649    0.0000    0.0000 C   0  0  0  0  0  0  0  0  0  0  0  0
   -0.9649    0.0000    0.0000 C   0  0  0  0  0  0  0  0  0  0  0  0
   -1.6793    0.0000    0.0000 O   0  0  0  0  0  0  0  0  0  0  0  0
   -1.6793    0.0000    0.0000 C   0  0  0  0  0  0  0  0  0  0  0  0
   -0.2503    0.0000    0.0000 C   0  0  0  0  0  0  0  0  0  0  0  0
    0.4641    0.0000    0.0000 C   0  0  0  0  0  0  0  0  0  0  0  0
    1.1785    0.0000    0.0000 C   0  0  0  0  0  0  0  0  0  0  0  0
    1.1785    0.0000    0.0000 C   0  0  0  0  0  0  0  0  0  0  0  0
    0.4641    0.0000    0.0000 N   0  0  0  0  0  0  0  0  0  0  0  0
    0.4641    0.0000    0.0000 C   0  0  0  0  0  0  0  0  0  0  0  0
    1.1785    0.0000    0.0000 C   0  0  0  0  0  0  0  0  0  0  0  0
    1.8930    0.0000    0.0000 C   0  0  0  0  0  0  0  0  0  0  0  0
    2.6075    0.0000    0.0000 C   0  0  0  0  0  0  0  0  0  0  0  0
    3.3219    0.0000    0.0000 C   0  0  0  0  0  0  0  0  0  0  0  0
    4.0364    0.0000    0.0000 O   0  0  0  0  0  0  0  0  0  0  0  0
    4.0364    0.0000    0.0000 C   0  0  0  0  0  0  0  0  0  0  0  0
    3.3219    0.0000    0.0000 C   0  0  0  0  0  0  0  0  0  0  0  0
    4.0364    0.0000    0.0000 O   0  0  0  0  0  0  0  0  0  0  0  0
    4.0364    0.0000    0.0000 C   0  0  0  0  0  0  0  0  0  0  0  0
    2.6075    0.0000    0.0000 C   0  0  0  0  0  0  0  0  0  0  0  0
    1.8930    0.0000    0.0000 C   0  0  0  0  0  0  0  0  0  0  0  0
    0.4641    0.0000    0.0000 C   0  0  0  0  0  0  0  0  0  0  0  0
   -0.2503    0.0000    0.0000 C   0  0  0  0  0  0  0  0  0  0  0  0
  2  3  1  0      
  3  4  1  0      
  4  5  2  0      
  5  6  1  0      
  6  7  1  0      
  5  8  1  0      
  8  9  2  0      
  9 10  1  0      
 10 11  1  0      
 11 12  2  0      
 12 13  1  0      
 13 14  2  0      
 14 15  1  0      
 15 16  2  0      
 16 17  1  0      
 17 18  1  0      
 18 19  1  0      
 17 20  2  0      
 20 21  1  0      
 21 22  1  0      
 20 23  1  0      
 23 24  2  0      
 11 24  1  0      
 15 24  1  0      
  9 25  1  0      
 25 26  2  0      
  4 26  1  0      
M  END
>  <Bioactivity>
Papaverine hydrochloride is a selective phosphodiesterase inhibitor for the PDE10A subtype found mainly in the striatum of the brain.

>  <CAS>
61-25-6

>  <Col>
5

>  <Formula>
C20H22ClNO4

>  <ID>
T0742

>  <Index>
174

>  <MOLENAME>
Papaverine hydrochloride

>  <MolWt>
375.85

>  <Pathways>
Metabolism

>  <Plate>
PLATE 003

>  <QR code>
1151477039

>  <Receptor>
PDE

>  <Reference>
1. Xin ZC, et al. Asian J Androl. 2003 Mar;5(1):15-8. 

>  <Row>
B

>  <SMILES>
Cl.COC1=C(OC)C=C(CC2=NC=CC3=CC(OC)=C(OC)C=C23)C=C1

>  <Target>
PDE inhibitor

>  <Weight>
10.4mg

$$$$
Lab-1.sdf
  ChemDraw05232018482D

 11 11  0  0  0  0  0  0  0  0999 V2000
   -0.4372    0.0000    0.0000 N   0  0  0  0  0  0  0  0  0  0  0  0
   -0.4372    0.0000    0.0000 C   0  0  0  0  0  0  0  0  0  0  0  0
   -1.1516    0.0000    0.0000 O   0  0  0  0  0  0  0  0  0  0  0  0
    0.2773    0.0000    0.0000 N   0  0  0  0  0  0  0  0  0  0  0  0
    0.2773    0.0000    0.0000 C   0  0  0  0  0  0  0  0  0  0  0  0
    0.9447    0.0000    0.0000 N   0  0  0  0  0  0  0  0  0  0  0  0
    0.6898    0.0000    0.0000 C   0  0  0  0  0  0  0  0  0  0  0  0
    1.1747    0.0000    0.0000 O   0  0  0  0  0  0  0  0  0  0  0  0
   -0.1352    0.0000    0.0000 N   0  0  0  0  0  0  0  0  0  0  0  0
   -0.3902    0.0000    0.0000 C   0  0  0  0  0  0  0  0  0  0  0  0
   -1.1747    0.0000    0.0000 O   0  0  0  0  0  0  0  0  0  0  0  0
  1  2  1  0      
  2  3  2  0      
  2  4  1  0      
  4  5  1  0      
  5  6  1  0      
  6  7  1  0      
  7  8  2  0      
  7  9  1  0      
  9 10  1  0      
  5 10  1  0      
 10 11  2  0      
M  END
>  <Bioactivity>
Extracted from Dioscorea opposite Thunb

>  <CAS>
97-59-6

>  <Col>
6

>  <Formula>
C4H6N4O3

>  <ID>
T0925

>  <Index>
175

>  <MOLENAME>
Allantoin

>  <MolWt>
158.12

>  <Pathways>
Others

>  <Plate>
PLATE 003

>  <QR code>
1151477040

>  <Receptor>
Others

>  <Reference>
1. Chen MF, et al. Biomed Res Int. 2014;2014:690135. 

>  <Row>
B

>  <SMILES>
NC(=O)NC1NC(=O)NC1=O

>  <Target>
Others

>  <Weight>
10.3mg

$$$$
Lab-1.sdf
  ChemDraw05232018482D

 21 24  0  0  0  0  0  0  0  0999 V2000
   -2.1307    0.0000    0.0000 C   0  0  0  0  0  0  0  0  0  0  0  0
   -1.7709    0.0000    0.0000 C   0  0  0  0  0  0  0  0  0  0  0  0
   -1.2390    0.0000    0.0000 C   0  0  0  0  0  0  0  0  0  0  0  0
   -0.4269    0.0000    0.0000 C   0  0  0  0  0  0  0  0  0  0  0  0
   -0.1466    0.0000    0.0000 C   0  0  0  0  0  0  0  0  0  0  0  0
   -0.6784    0.0000    0.0000 C   0  0  0  0  0  0  0  0  0  0  0  0
   -0.3982    0.0000    0.0000 C   0  0  0  0  0  0  0  0  0  0  0  0
    0.4140    0.0000    0.0000 C   0  0  0  0  0  0  0  0  0  0  0  0
    0.9458    0.0000    0.0000 C   0  0  0  0  0  0  0  0  0  0  0  0
    1.7579    0.0000    0.0000 C   0  0  0  0  0  0  0  0  0  0  0  0
    2.2898    0.0000    0.0000 C   0  0  0  0  0  0  0  0  0  0  0  0
    3.1019    0.0000    0.0000 O   0  0  0  0  0  0  0  0  0  0  0  0
    2.0094    0.0000    0.0000 C   0  0  0  0  0  0  0  0  0  0  0  0
    1.1973    0.0000    0.0000 C   0  0  0  0  0  0  0  0  0  0  0  0
    0.6655    0.0000    0.0000 C   0  0  0  0  0  0  0  0  0  0  0  0
    0.3852    0.0000    0.0000 C   0  0  0  0  0  0  0  0  0  0  0  0
   -1.4906    0.0000    0.0000 C   0  0  0  0  0  0  0  0  0  0  0  0
   -2.1420    0.0000    0.0000 C   0  0  0  0  0  0  0  0  0  0  0  0
   -2.8248    0.0000    0.0000 C   0  0  0  0  0  0  0  0  0  0  0  0
   -2.5955    0.0000    0.0000 C   0  0  0  0  0  0  0  0  0  0  0  0
   -3.1019    0.0000    0.0000 O   0  0  0  0  0  0  0  0  0  0  0  0
  1  2  1  0      
  2  3  1  0      
  3  4  1  0      
  4  5  1  0      
  5  6  1  0      
  6  7  1  0      
  7  8  1  0      
  8  9  1  0      
  9 10  1  0      
 10 11  1  0      
 11 12  1  0      
 11 13  1  0      
 13 14  1  0      
 14 15  1  0      
  5 15  1  0      
  9 15  1  0      
 15 16  1  0      
  6 17  1  0      
  2 17  1  0      
 17 18  1  0      
 18 19  1  0      
 19 20  1  0      
  2 20  1  0      
 20 21  2  0      
M  END
>  <Bioactivity>
Epiandrosterone is a steroid hormone with weak androgenic activity, is a natural metabolite of DHEA.

>  <CAS>
481-29-8

>  <Col>
7

>  <Formula>
C19H30O2

>  <ID>
T2195

>  <Index>
176

>  <MOLENAME>
Epiandrosterone

>  <MolWt>
290.44

>  <Pathways>
Endocrinology/ Hormones

>  <Plate>
PLATE 003

>  <QR code>
1151477041

>  <Receptor>
Androgen/progestogen Receptor

>  <Reference>
1. Gupte SA, et al. J Pharmacol Exp Ther, 2002, 301(1), 299-305.

>  <Row>
B

>  <SMILES>
CC12CCC3C(CCC4CC(O)CCC34C)C1CCC2=O

>  <Target>
Androgen Receptor agonist

>  <Weight>
10.1mg

$$$$
Lab-1.sdf
  ChemDraw05232018482D

 27 30  0  0  0  0  0  0  0  0999 V2000
   -1.4673    0.0000    0.0000 C   0  0  0  0  0  0  0  0  0  0  0  0
   -1.7782    0.0000    0.0000 C   0  0  0  0  0  0  0  0  0  0  0  0
   -2.5955    0.0000    0.0000 C   0  0  0  0  0  0  0  0  0  0  0  0
   -3.1019    0.0000    0.0000 C   0  0  0  0  0  0  0  0  0  0  0  0
   -3.9191    0.0000    0.0000 C   0  0  0  0  0  0  0  0  0  0  0  0
   -4.4255    0.0000    0.0000 O   0  0  0  0  0  0  0  0  0  0  0  0
   -4.2300    0.0000    0.0000 O   0  0  0  0  0  0  0  0  0  0  0  0
   -1.2718    0.0000    0.0000 C   0  0  0  0  0  0  0  0  0  0  0  0
   -1.5011    0.0000    0.0000 C   0  0  0  0  0  0  0  0  0  0  0  0
   -0.8183    0.0000    0.0000 C   0  0  0  0  0  0  0  0  0  0  0  0
   -0.1670    0.0000    0.0000 C   0  0  0  0  0  0  0  0  0  0  0  0
    0.6452    0.0000    0.0000 C   0  0  0  0  0  0  0  0  0  0  0  0
    0.9254    0.0000    0.0000 C   0  0  0  0  0  0  0  0  0  0  0  0
    1.7376    0.0000    0.0000 C   0  0  0  0  0  0  0  0  0  0  0  0
    2.2695    0.0000    0.0000 C   0  0  0  0  0  0  0  0  0  0  0  0
    3.0816    0.0000    0.0000 C   0  0  0  0  0  0  0  0  0  0  0  0
    3.6134    0.0000    0.0000 C   0  0  0  0  0  0  0  0  0  0  0  0
    4.4255    0.0000    0.0000 O   0  0  0  0  0  0  0  0  0  0  0  0
    3.3331    0.0000    0.0000 C   0  0  0  0  0  0  0  0  0  0  0  0
    2.5210    0.0000    0.0000 C   0  0  0  0  0  0  0  0  0  0  0  0
    1.9891    0.0000    0.0000 C   0  0  0  0  0  0  0  0  0  0  0  0
    1.7088    0.0000    0.0000 C   0  0  0  0  0  0  0  0  0  0  0  0
    1.1770    0.0000    0.0000 C   0  0  0  0  0  0  0  0  0  0  0  0
    0.8967    0.0000    0.0000 C   0  0  0  0  0  0  0  0  0  0  0  0
    0.0846    0.0000    0.0000 C   0  0  0  0  0  0  0  0  0  0  0  0
   -0.4473    0.0000    0.0000 C   0  0  0  0  0  0  0  0  0  0  0  0
   -0.8071    0.0000    0.0000 C   0  0  0  0  0  0  0  0  0  0  0  0
  1  2  1  0      
  2  3  1  0      
  3  4  1  0      
  4  5  1  0      
  5  6  1  0      
  5  7  2  0      
  2  8  1  0      
  8  9  1  0      
  9 10  1  0      
 10 11  1  0      
 11 12  1  0      
 12 13  1  0      
 13 14  1  0      
 14 15  1  0      
 15 16  1  0      
 16 17  1  0      
 17 18  1  0      
 17 19  1  0      
 19 20  1  0      
 20 21  1  0      
 15 21  1  0      
 21 22  1  0      
 21 23  1  0      
 12 23  1  0      
 23 24  1  0      
 24 25  1  0      
 25 26  1  0      
  8 26  1  0      
 11 26  1  0      
 26 27  1  0      
M  END
>  <Bioactivity>
 Lithocholic acid is a toxic secondary bile acid, causes intrahepatic cholestasis, has tumor-promoting activity.

>  <CAS>
434-13-9

>  <Col>
8

>  <Formula>
C24H40O3

>  <ID>
T2202

>  <Index>
177

>  <MOLENAME>
Lithocholic acid

>  <MolWt>
376.58

>  <Pathways>
Metabolism; Vitamin

>  <Plate>
PLATE 003

>  <QR code>
1151477042

>  <Receptor>
FXR; PXR; VD receptor

>  <Reference>
1. Kozoni V, et al. Carcinogenesis. 2000 May;21(5):999-1005.

>  <Row>
B

>  <SMILES>
CC(CCC(O)=O)C1CCC2C3CCC4CC(O)CCC4(C)C3CCC12C

>  <Target>
Farnesoid X receptor; VD

>  <Weight>
10.3mg

$$$$
Lab-1.sdf
  ChemDraw05232018482D

 17 18  0  0  0  0  0  0  0  0999 V2000
    0.8421    0.0000    0.0000 C   0  0  0  0  0  0  0  0  0  0  0  0
    0.8421    0.0000    0.0000 N   0  0  0  0  0  0  0  0  0  0  0  0
    0.1276    0.0000    0.0000 C   0  0  0  0  0  0  0  0  0  0  0  0
    0.1276    0.0000    0.0000 C   0  0  0  0  0  0  0  0  0  0  0  0
   -0.6570    0.0000    0.0000 N   0  0  0  0  0  0  0  0  0  0  0  0
   -0.9120    0.0000    0.0000 C   0  0  0  0  0  0  0  0  0  0  0  0
   -1.7189    0.0000    0.0000 C   0  0  0  0  0  0  0  0  0  0  0  0
   -1.9739    0.0000    0.0000 O   0  0  0  0  0  0  0  0  0  0  0  0
   -2.2710    0.0000    0.0000 O   0  0  0  0  0  0  0  0  0  0  0  0
   -1.1419    0.0000    0.0000 C   0  0  0  0  0  0  0  0  0  0  0  0
   -0.6570    0.0000    0.0000 N   0  0  0  0  0  0  0  0  0  0  0  0
    0.8421    0.0000    0.0000 C   0  0  0  0  0  0  0  0  0  0  0  0
    0.8421    0.0000    0.0000 O   0  0  0  0  0  0  0  0  0  0  0  0
    1.5565    0.0000    0.0000 N   0  0  0  0  0  0  0  0  0  0  0  0
    2.2710    0.0000    0.0000 C   0  0  0  0  0  0  0  0  0  0  0  0
    1.5565    0.0000    0.0000 C   0  0  0  0  0  0  0  0  0  0  0  0
    2.2710    0.0000    0.0000 O   0  0  0  0  0  0  0  0  0  0  0  0
  1  2  1  0      
  2  3  1  0      
  3  4  2  0      
  4  5  1  0      
  5  6  1  0      
  6  7  1  0      
  7  8  1  0      
  7  9  2  0      
  5 10  1  0      
 10 11  2  0      
  3 11  1  0      
  4 12  1  0      
 12 13  2  0      
 12 14  1  0      
 14 15  1  0      
 14 16  1  0      
  2 16  1  0      
 16 17  2  0      
M  END
>  <Bioactivity>
Theophylline-7-acetic acid is a stimulant drug of the xanthine chemical class. It acts as an adenosine receptor antagonist. It is combined with diphenhydramine in the pharmaceutical preparation etanau
tine to help offset its stimulant effects

>  <CAS>
652-37-9

>  <Col>
9

>  <Formula>
C9H10N4O4

>  <ID>
T2205

>  <Index>
178

>  <MOLENAME>
Theophylline-7-acetic acid

>  <MolWt>
238.2

>  <Pathways>
Others

>  <Plate>
PLATE 003

>  <QR code>
1151477043

>  <Receptor>
Others

>  <Reference>
1. Voynikov Y, et al. Bioorg Med Chem Lett. 2014 Jul 15; 24(14):3043-5. 

>  <Row>
B

>  <SMILES>
CN1C2=C(N(CC(O)=O)C=N2)C(=O)N(C)C1=O

>  <Target>
adenosine receptor antagonist

>  <Weight>
10.1mg

$$$$
Lab-1.sdf
  ChemDraw05232018482D

 31 35  0  0  0  0  0  0  0  0999 V2000
    2.3796    0.0000    0.0000 C   0  0  0  0  0  0  0  0  0  0  0  0
    2.8875    0.0000    0.0000 C   0  0  0  0  0  0  0  0  0  0  0  0
    2.5785    0.0000    0.0000 C   0  0  0  0  0  0  0  0  0  0  0  0
    1.8788    0.0000    0.0000 O   0  0  0  0  0  0  0  0  0  0  0  0
    3.3855    0.0000    0.0000 C   0  0  0  0  0  0  0  0  0  0  0  0
    3.9375    0.0000    0.0000 O   0  0  0  0  0  0  0  0  0  0  0  0
    3.6404    0.0000    0.0000 O   0  0  0  0  0  0  0  0  0  0  0  0
    3.0884    0.0000    0.0000 C   0  0  0  0  0  0  0  0  0  0  0  0
    2.2814    0.0000    0.0000 C   0  0  0  0  0  0  0  0  0  0  0  0
    2.0265    0.0000    0.0000 C   0  0  0  0  0  0  0  0  0  0  0  0
    1.2195    0.0000    0.0000 C   0  0  0  0  0  0  0  0  0  0  0  0
    0.6674    0.0000    0.0000 C   0  0  0  0  0  0  0  0  0  0  0  0
    0.9224    0.0000    0.0000 N   0  0  0  0  0  0  0  0  0  0  0  0
    0.2549    0.0000    0.0000 C   0  0  0  0  0  0  0  0  0  0  0  0
   -0.4125    0.0000    0.0000 C   0  0  0  0  0  0  0  0  0  0  0  0
   -0.1576    0.0000    0.0000 C   0  0  0  0  0  0  0  0  0  0  0  0
   -0.7096    0.0000    0.0000 N   0  0  0  0  0  0  0  0  0  0  0  0
   -1.5166    0.0000    0.0000 C   0  0  0  0  0  0  0  0  0  0  0  0
   -2.0686    0.0000    0.0000 C   0  0  0  0  0  0  0  0  0  0  0  0
   -2.8756    0.0000    0.0000 C   0  0  0  0  0  0  0  0  0  0  0  0
   -3.1305    0.0000    0.0000 C   0  0  0  0  0  0  0  0  0  0  0  0
   -3.9375    0.0000    0.0000 O   0  0  0  0  0  0  0  0  0  0  0  0
   -2.5785    0.0000    0.0000 C   0  0  0  0  0  0  0  0  0  0  0  0
   -2.8334    0.0000    0.0000 C   0  0  0  0  0  0  0  0  0  0  0  0
   -2.2814    0.0000    0.0000 N   0  0  0  0  0  0  0  0  0  0  0  0
   -2.5363    0.0000    0.0000 C   0  0  0  0  0  0  0  0  0  0  0  0
   -1.4744    0.0000    0.0000 C   0  0  0  0  0  0  0  0  0  0  0  0
   -1.7715    0.0000    0.0000 C   0  0  0  0  0  0  0  0  0  0  0  0
   -1.2195    0.0000    0.0000 C   0  0  0  0  0  0  0  0  0  0  0  0
    1.7294    0.0000    0.0000 C   0  0  0  0  0  0  0  0  0  0  0  0
    1.9843    0.0000    0.0000 O   0  0  0  0  0  0  0  0  0  0  0  0
  1  2  1  0      
  2  3  1  0      
  3  4  1  0      
  3  5  1  0      
  5  6  2  0      
  5  7  1  0      
  7  8  1  0      
  8  9  1  0      
  9 10  2  0      
  3 10  1  0      
 10 11  1  0      
 11 12  2  0      
 12 13  1  0      
 13 14  1  0      
 14 15  1  0      
 15 16  2  0      
 12 16  1  0      
 16 17  1  0      
 17 18  2  0      
 18 19  1  0      
 19 20  2  0      
 20 21  1  0      
 21 22  1  0      
 21 23  2  0      
 23 24  1  0      
 24 25  1  0      
 25 26  1  0      
 25 27  1  0      
 23 28  1  0      
 18 28  1  0      
 28 29  2  0      
 15 29  1  0      
 13 30  1  0      
  9 30  1  0      
 30 31  2  0      
M  END
>  <Bioactivity>
Topotecan HCl (SKF 104864A; NSC 609669) is the first topoisomerase I-directed cytotoxic agent to enter clinical trials in the United States. 

>  <CAS>
119413-54-6

>  <Col>
10

>  <Formula>
C23H24ClN3O5

>  <ID>
T1174

>  <Index>
179

>  <MOLENAME>
Topotecan hydrochloride

>  <MolWt>
457.92

>  <Pathways>
DNA Damage/DNA Repair

>  <Plate>
PLATE 003

>  <QR code>
1151477044

>  <Receptor>
Topoisomerase I

>  <Reference>
1. Caceres G, et al. AntiY Drugs. 2003, 14(7), 569-574.

>  <Row>
B

>  <SMILES>
CCC1(O)C(=O)OCC2=C1C=C1N(CC3=C1N=C1C=CC(O)=C(CN(C)C)C1=C3)C2=O

>  <Target>
Topoisomerase inhibitor

>  <Weight>
10.1mg

$$$$
Lab-1.sdf
  ChemDraw05232018482D

 55 62  0  0  0  0  0  0  0  0999 V2000
   -1.1322    0.0000    0.0000 C   0  0  0  0  0  0  0  0  0  0  0  0
   -0.6004    0.0000    0.0000 C   0  0  0  0  0  0  0  0  0  0  0  0
    0.2118    0.0000    0.0000 O   0  0  0  0  0  0  0  0  0  0  0  0
    0.7436    0.0000    0.0000 C   0  0  0  0  0  0  0  0  0  0  0  0
    0.4633    0.0000    0.0000 C   0  0  0  0  0  0  0  0  0  0  0  0
   -0.3489    0.0000    0.0000 C   0  0  0  0  0  0  0  0  0  0  0  0
   -0.6292    0.0000    0.0000 O   0  0  0  0  0  0  0  0  0  0  0  0
   -0.8807    0.0000    0.0000 C   0  0  0  0  0  0  0  0  0  0  0  0
   -1.6928    0.0000    0.0000 O   0  0  0  0  0  0  0  0  0  0  0  0
    1.5558    0.0000    0.0000 O   0  0  0  0  0  0  0  0  0  0  0  0
    2.0876    0.0000    0.0000 C   0  0  0  0  0  0  0  0  0  0  0  0
    2.8997    0.0000    0.0000 C   0  0  0  0  0  0  0  0  0  0  0  0
    3.1800    0.0000    0.0000 O   0  0  0  0  0  0  0  0  0  0  0  0
    3.4315    0.0000    0.0000 C   0  0  0  0  0  0  0  0  0  0  0  0
    3.1512    0.0000    0.0000 C   0  0  0  0  0  0  0  0  0  0  0  0
    3.6830    0.0000    0.0000 O   0  0  0  0  0  0  0  0  0  0  0  0
    3.4027    0.0000    0.0000 C   0  0  0  0  0  0  0  0  0  0  0  0
    3.9347    0.0000    0.0000 C   0  0  0  0  0  0  0  0  0  0  0  0
    4.7468    0.0000    0.0000 O   0  0  0  0  0  0  0  0  0  0  0  0
    3.6543    0.0000    0.0000 C   0  0  0  0  0  0  0  0  0  0  0  0
    2.8421    0.0000    0.0000 C   0  0  0  0  0  0  0  0  0  0  0  0
    2.5618    0.0000    0.0000 O   0  0  0  0  0  0  0  0  0  0  0  0
    1.7497    0.0000    0.0000 C   0  0  0  0  0  0  0  0  0  0  0  0
    1.4694    0.0000    0.0000 C   0  0  0  0  0  0  0  0  0  0  0  0
    0.6573    0.0000    0.0000 C   0  0  0  0  0  0  0  0  0  0  0  0
    0.1255    0.0000    0.0000 C   0  0  0  0  0  0  0  0  0  0  0  0
   -0.1549    0.0000    0.0000 C   0  0  0  0  0  0  0  0  0  0  0  0
    0.4058    0.0000    0.0000 C   0  0  0  0  0  0  0  0  0  0  0  0
   -0.1261    0.0000    0.0000 C   0  0  0  0  0  0  0  0  0  0  0  0
   -0.9382    0.0000    0.0000 C   0  0  0  0  0  0  0  0  0  0  0  0
   -1.2185    0.0000    0.0000 C   0  0  0  0  0  0  0  0  0  0  0  0
   -0.6867    0.0000    0.0000 C   0  0  0  0  0  0  0  0  0  0  0  0
   -0.9670    0.0000    0.0000 C   0  0  0  0  0  0  0  0  0  0  0  0
   -1.7791    0.0000    0.0000 C   0  0  0  0  0  0  0  0  0  0  0  0
   -2.0594    0.0000    0.0000 O   0  0  0  0  0  0  0  0  0  0  0  0
   -2.3110    0.0000    0.0000 C   0  0  0  0  0  0  0  0  0  0  0  0
   -2.6708    0.0000    0.0000 C   0  0  0  0  0  0  0  0  0  0  0  0
   -3.1355    0.0000    0.0000 C   0  0  0  0  0  0  0  0  0  0  0  0
   -3.3648    0.0000    0.0000 C   0  0  0  0  0  0  0  0  0  0  0  0
   -2.6820    0.0000    0.0000 C   0  0  0  0  0  0  0  0  0  0  0  0
   -2.0307    0.0000    0.0000 C   0  0  0  0  0  0  0  0  0  0  0  0
   -1.8330    0.0000    0.0000 O   0  0  0  0  0  0  0  0  0  0  0  0
   -3.6419    0.0000    0.0000 C   0  0  0  0  0  0  0  0  0  0  0  0
   -3.4126    0.0000    0.0000 C   0  0  0  0  0  0  0  0  0  0  0  0
   -4.0955    0.0000    0.0000 C   0  0  0  0  0  0  0  0  0  0  0  0
   -4.1223    0.0000    0.0000 O   0  0  0  0  0  0  0  0  0  0  0  0
   -4.7468    0.0000    0.0000 O   0  0  0  0  0  0  0  0  0  0  0  0
   -4.4665    0.0000    0.0000 C   0  0  0  0  0  0  0  0  0  0  0  0
    1.2179    0.0000    0.0000 C   0  0  0  0  0  0  0  0  0  0  0  0
    2.3103    0.0000    0.0000 O   0  0  0  0  0  0  0  0  0  0  0  0
    2.5906    0.0000    0.0000 C   0  0  0  0  0  0  0  0  0  0  0  0
    2.0588    0.0000    0.0000 C   0  0  0  0  0  0  0  0  0  0  0  0
    2.3391    0.0000    0.0000 O   0  0  0  0  0  0  0  0  0  0  0  0
    1.8073    0.0000    0.0000 C   0  0  0  0  0  0  0  0  0  0  0  0
    0.9952    0.0000    0.0000 C   0  0  0  0  0  0  0  0  0  0  0  0
  1  2  1  0      
  2  3  1  0      
  3  4  1  0      
  4  5  1  0      
  5  6  1  0      
  6  7  1  0      
  6  8  1  0      
  2  8  1  0      
  8  9  1  0      
  4 10  1  0      
 10 11  1  0      
 11 12  1  0      
 12 13  1  0      
 12 14  1  0      
 14 15  1  0      
 15 16  1  0      
 16 17  1  0      
 17 18  1  0      
 18 19  1  0      
 18 20  1  0      
 20 21  1  0      
 21 22  1  0      
 22 23  1  0      
 23 24  1  0      
 24 25  1  0      
 25 26  1  0      
 26 27  1  0      
 26 28  1  0      
 28 29  1  0      
 29 30  1  0      
 30 31  1  0      
 31 32  1  0      
 26 32  1  0      
 32 33  1  0      
 33 34  1  0      
 34 35  1  0      
 34 36  1  0      
 36 37  1  0      
 36 38  1  0      
 38 39  1  0      
 39 40  1  0      
 40 41  1  0      
 31 41  1  0      
 36 41  1  0      
 41 42  1  0      
 38 43  1  0      
 43 44  2  0      
 44 45  1  0      
 45 46  2  0      
 45 47  1  0      
 47 48  1  0      
 43 48  1  0      
 28 49  1  0      
 23 49  1  0      
 21 50  1  0      
 50 51  1  0      
 17 51  1  0      
 51 52  1  0      
 15 53  1  0      
 53 54  1  0      
 11 54  1  0      
 54 55  1  0      
M  END
>  <Bioactivity>
Digoxin is occasionally used in the treatment of various heart conditions, namely atrial fibrillation, atrial flutter and sometimes heart failure that cannot be controlled by other medication.

>  <CAS>
20830-75-5

>  <Col>
11

>  <Formula>
C41H64O14

>  <ID>
T1194

>  <Index>
180

>  <MOLENAME>
Digoxin

>  <MolWt>
780.96

>  <Pathways>
Membrane Transporter/Ion Channel

>  <Plate>
PLATE 003

>  <QR code>
1151477045

>  <Receptor>
Cholesterol side-chain cleavage enzyme; Na+/K+-ATPase

>  <Reference>
1. Ravikumar A, et al. Indian J Exp Biol. 2000 May;38(5):438-46. 

>  <Row>
B

>  <SMILES>
CC1OC(CC(O)C1O)OC1C(O)CC(OC2C(O)CC(OC3CCC4(C)C(CCC5C4CC(O)C4(C)C(CCC54O)C4=CC(=O)OC4)C3)OC2C)OC1C

>  <Target>
ATPase inhibitor

>  <Weight>
10.2mg

$$$$
Lab-1.sdf
  ChemDraw05232018482D

 29 31  0  0  0  0  0  0  0  0999 V2000
   -2.8579    0.0000    0.0000 C   0  0  0  0  0  0  0  0  0  0  0  0
   -2.1434    0.0000    0.0000 C   0  0  0  0  0  0  0  0  0  0  0  0
   -1.4290    0.0000    0.0000 C   0  0  0  0  0  0  0  0  0  0  0  0
   -1.4290    0.0000    0.0000 C   0  0  0  0  0  0  0  0  0  0  0  0
   -0.7145    0.0000    0.0000 C   0  0  0  0  0  0  0  0  0  0  0  0
   -0.7145    0.0000    0.0000 O   0  0  0  0  0  0  0  0  0  0  0  0
   -0.0000    0.0000    0.0000 O   0  0  0  0  0  0  0  0  0  0  0  0
    0.7144    0.0000    0.0000 C   0  0  0  0  0  0  0  0  0  0  0  0
    0.7144    0.0000    0.0000 C   0  0  0  0  0  0  0  0  0  0  0  0
    1.4289    0.0000    0.0000 C   0  0  0  0  0  0  0  0  0  0  0  0
    1.4289    0.0000    0.0000 C   0  0  0  0  0  0  0  0  0  0  0  0
    2.1434    0.0000    0.0000 C   0  0  0  0  0  0  0  0  0  0  0  0
    2.1434    0.0000    0.0000 C   0  0  0  0  0  0  0  0  0  0  0  0
    2.8579    0.0000    0.0000 C   0  0  0  0  0  0  0  0  0  0  0  0
    2.8579    0.0000    0.0000 C   0  0  0  0  0  0  0  0  0  0  0  0
    2.1434    0.0000    0.0000 C   0  0  0  0  0  0  0  0  0  0  0  0
    2.1434    0.0000    0.0000 C   0  0  0  0  0  0  0  0  0  0  0  0
    1.4289    0.0000    0.0000 C   0  0  0  0  0  0  0  0  0  0  0  0
    0.7144    0.0000    0.0000 C   0  0  0  0  0  0  0  0  0  0  0  0
    0.7144    0.0000    0.0000 C   0  0  0  0  0  0  0  0  0  0  0  0
   -0.0000    0.0000    0.0000 C   0  0  0  0  0  0  0  0  0  0  0  0
   -0.7145    0.0000    0.0000 C   0  0  0  0  0  0  0  0  0  0  0  0
   -1.4290    0.0000    0.0000 C   0  0  0  0  0  0  0  0  0  0  0  0
   -2.1434    0.0000    0.0000 O   0  0  0  0  0  0  0  0  0  0  0  0
   -1.4290    0.0000    0.0000 C   0  0  0  0  0  0  0  0  0  0  0  0
   -0.7145    0.0000    0.0000 C   0  0  0  0  0  0  0  0  0  0  0  0
   -0.7145    0.0000    0.0000 O   0  0  0  0  0  0  0  0  0  0  0  0
   -0.0000    0.0000    0.0000 O   0  0  0  0  0  0  0  0  0  0  0  0
    1.4289    0.0000    0.0000 C   0  0  0  0  0  0  0  0  0  0  0  0
  1  2  1  0      
  2  3  1  0      
  3  4  1  0      
  3  5  1  0      
  5  6  2  0      
  5  7  1  0      
  7  8  1  0      
  8  9  1  0      
  9 10  1  0      
 10 11  1  0      
 10 12  1  0      
 12 13  2  0      
 13 14  1  0      
 14 15  2  0      
 15 16  1  0      
 16 17  1  0      
 16 18  1  0      
 18 19  1  0      
 19 20  1  0      
 20 21  1  0      
 21 22  1  0      
 22 23  1  0      
 23 24  1  0      
 23 25  1  0      
 25 26  1  0      
 26 27  2  0      
 26 28  1  0      
 21 28  1  0      
 18 29  1  0      
  8 29  1  0      
 13 29  1  0      
M  END
>  <Bioactivity>
Lovastatin is a HMG-CoA Reductase Inhibitor. 

>  <CAS>
75330-75-5

>  <Col>
2

>  <Formula>
C24H36O5

>  <ID>
T1207

>  <Index>
181

>  <MOLENAME>
Lovastatin

>  <MolWt>
404.54

>  <Pathways>
Chromatin/Epigenetic; Metabolism

>  <Plate>
PLATE 003

>  <QR code>
1151477033

>  <Receptor>
HDAC2; HMG-CoA reductase; Integrin

>  <Reference>
1. Pahan K, et al. J Clin Invest, 1997, 100(11), 2671-2679.

>  <Row>
C

>  <SMILES>
CCC(C)C(=O)OC1CC(C)C=C2C=CC(C)C(CCC3CC(O)CC(=O)O3)C12

>  <Target>
HDAC inhibitor; HMG-CoA reductase inhibitor; Integrin

>  <Weight>
10.5mg

$$$$
Lab-1.sdf
  ChemDraw05232018482D

 19 19  0  0  0  0  0  0  0  0999 V2000
   -2.6335    0.0000    0.0000 O   0  0  0  0  0  0  0  0  0  0  0  0
   -3.0460    0.0000    0.0000 N   0  3  0  0  0  0  0  0  0  0  0  0
   -2.6335    0.0000    0.0000 O   0  5  0  0  0  0  0  0  0  0  0  0
   -3.8710    0.0000    0.0000 O   0  0  0  0  0  0  0  0  0  0  0  0
   -0.1281    0.0000    0.0000 C   0  0  0  0  0  0  0  0  0  0  0  0
    0.5864    0.0000    0.0000 C   0  0  0  0  0  0  0  0  0  0  0  0
    0.5864    0.0000    0.0000 C   0  0  0  0  0  0  0  0  0  0  0  0
    1.2539    0.0000    0.0000 C   0  0  0  0  0  0  0  0  0  0  0  0
    2.0385    0.0000    0.0000 C   0  0  0  0  0  0  0  0  0  0  0  0
    2.6516    0.0000    0.0000 C   0  0  0  0  0  0  0  0  0  0  0  0
    3.4585    0.0000    0.0000 C   0  0  0  0  0  0  0  0  0  0  0  0
    3.8710    0.0000    0.0000 N   0  0  0  0  0  0  0  0  0  0  0  0
    3.3190    0.0000    0.0000 C   0  0  0  0  0  0  0  0  0  0  0  0
    2.5653    0.0000    0.0000 N   0  0  0  0  0  0  0  0  0  0  0  0
    1.8509    0.0000    0.0000 C   0  0  0  0  0  0  0  0  0  0  0  0
    0.9989    0.0000    0.0000 C   0  0  0  0  0  0  0  0  0  0  0  0
    0.1739    0.0000    0.0000 O   0  0  0  0  0  0  0  0  0  0  0  0
   -0.0810    0.0000    0.0000 C   0  0  0  0  0  0  0  0  0  0  0  0
   -0.8656    0.0000    0.0000 O   0  0  0  0  0  0  0  0  0  0  0  0
  1  2  1  0      
  2  3  1  0      
  2  4  2  0      
  5  6  1  0      
  6  7  1  0      
  7  8  1  0      
  8  9  1  0      
  9 10  1  0      
 10 11  2  0      
 11 12  1  0      
 12 13  2  0      
 13 14  1  0      
 10 14  1  0      
 14 15  1  0      
  8 16  1  0      
 16 17  1  0      
 17 18  1  0      
  7 18  1  0      
 18 19  2  0      
M  CHG  2   2   1   3  -1
M  END
>  <Bioactivity>
Pilocarpine nitrate is a non-selective muscarinic receptor agonist£¬a parasympathomimetic alkaloid £¬ a drug used to treat glaucoma.

>  <CAS>
148-72-1

>  <Col>
3

>  <Formula>
C11H16N2O2?HNO3

>  <ID>
T1231

>  <Index>
182

>  <MOLENAME>
Pilocarpine nitrate

>  <MolWt>
271.27

>  <Pathways>
Neuroscience

>  <Plate>
PLATE 003

>  <QR code>
1151477032

>  <Receptor>
Muscarinic AChR

>  <Reference>
1. Sykes DA, et al. Mol Pharmacol. 2009 Sep;76(3):543-51.

>  <Row>
C

>  <SMILES>
O[N+]([O-])=O.CCC1C(CC2=CN=CN2C)COC1=O

>  <Target>
AChR antagonist

>  <Weight>
10.3mg

$$$$
Lab-1.sdf
  ChemDraw05232018482D

 20 21  0  0  0  0  0  0  0  0999 V2000
    1.4289    0.0000    0.0000 C   0  0  0  0  0  0  0  0  0  0  0  0
    1.4289    0.0000    0.0000 C   0  0  0  0  0  0  0  0  0  0  0  0
    2.1434    0.0000    0.0000 C   0  0  0  0  0  0  0  0  0  0  0  0
    2.1434    0.0000    0.0000 C   0  0  0  0  0  0  0  0  0  0  0  0
    2.8579    0.0000    0.0000 C   0  0  0  0  0  0  0  0  0  0  0  0
    1.4289    0.0000    0.0000 C   0  0  0  0  0  0  0  0  0  0  0  0
    1.4289    0.0000    0.0000 O   0  0  0  0  0  0  0  0  0  0  0  0
    0.7145    0.0000    0.0000 C   0  0  0  0  0  0  0  0  0  0  0  0
    0.7145    0.0000    0.0000 C   0  0  0  0  0  0  0  0  0  0  0  0
   -0.0000    0.0000    0.0000 C   0  0  0  0  0  0  0  0  0  0  0  0
   -0.7145    0.0000    0.0000 O   0  0  0  0  0  0  0  0  0  0  0  0
   -0.0000    0.0000    0.0000 C   0  0  0  0  0  0  0  0  0  0  0  0
   -0.7145    0.0000    0.0000 C   0  0  0  0  0  0  0  0  0  0  0  0
   -0.7145    0.0000    0.0000 C   0  0  0  0  0  0  0  0  0  0  0  0
   -1.4289    0.0000    0.0000 C   0  0  0  0  0  0  0  0  0  0  0  0
   -1.4289    0.0000    0.0000 O   0  0  0  0  0  0  0  0  0  0  0  0
   -2.1434    0.0000    0.0000 N   0  0  0  0  0  0  0  0  0  0  0  0
   -2.1434    0.0000    0.0000 C   0  0  0  0  0  0  0  0  0  0  0  0
   -2.8579    0.0000    0.0000 O   0  0  0  0  0  0  0  0  0  0  0  0
   -1.4289    0.0000    0.0000 C   0  0  0  0  0  0  0  0  0  0  0  0
  1  2  1  0      
  2  3  1  0      
  3  4  1  0      
  4  5  1  0      
  4  6  1  0      
  6  7  2  0      
  6  8  1  0      
  8  9  1  0      
  2  9  1  0      
  8 10  1  0      
 10 11  1  0      
 10 12  1  0      
 12 13  1  0      
 13 14  1  0      
 14 15  1  0      
 15 16  2  0      
 15 17  1  0      
 17 18  1  0      
 18 19  2  0      
 18 20  1  0      
 13 20  1  0      
M  END
>  <Bioactivity>
Actidione(Cycloheximide) is an inhibitor of protein biosynthesis in eukaryotic organisms, with IC50 of 532.5 nM.

>  <CAS>
66-81-9

>  <Col>
4

>  <Formula>
C15H23NO4

>  <ID>
T1225

>  <Index>
183

>  <MOLENAME>
Actidione

>  <MolWt>
281.35

>  <Pathways>
Microbiology & Virology

>  <Plate>
PLATE 003

>  <QR code>
1151477031

>  <Receptor>
Others

>  <Reference>
1. Watanabe-Asano T, et al. Biochem Biophys Res Commun. 2014 Mar 7;445(2):334-9. 

>  <Row>
C

>  <SMILES>
CC1CC(C)C(=O)C(C1)C(O)CC1CC(=O)NC(=O)C1

>  <Target>
Antifungal

>  <Weight>
10.2mg

$$$$
Lab-1.sdf
  ChemDraw05232018482D

100103  0  0  0  0  0  0  0  0999 V2000
  -10.8012    0.0000    0.0000 C   0  0  0  0  0  0  0  0  0  0  0  0
  -10.4908    0.0000    0.0000 C   0  0  0  0  0  0  0  0  0  0  0  0
   -9.6736    0.0000    0.0000 C   0  0  0  0  0  0  0  0  0  0  0  0
   -9.1668    0.0000    0.0000 C   0  0  0  0  0  0  0  0  0  0  0  0
   -9.3632    0.0000    0.0000 C   0  0  0  0  0  0  0  0  0  0  0  0
   -9.8699    0.0000    0.0000 N   0  0  0  0  0  0  0  0  0  0  0  0
   -8.5460    0.0000    0.0000 C   0  0  0  0  0  0  0  0  0  0  0  0
   -7.9740    0.0000    0.0000 N   0  0  0  0  0  0  0  0  0  0  0  0
   -7.2318    0.0000    0.0000 C   0  0  0  0  0  0  0  0  0  0  0  0
   -7.3452    0.0000    0.0000 C   0  0  0  0  0  0  0  0  0  0  0  0
   -8.1574    0.0000    0.0000 S   0  0  0  0  0  0  0  0  0  0  0  0
   -6.7507    0.0000    0.0000 C   0  0  0  0  0  0  0  0  0  0  0  0
   -6.9489    0.0000    0.0000 O   0  0  0  0  0  0  0  0  0  0  0  0
   -5.9581    0.0000    0.0000 N   0  0  0  0  0  0  0  0  0  0  0  0
   -5.3636    0.0000    0.0000 C   0  0  0  0  0  0  0  0  0  0  0  0
   -5.5617    0.0000    0.0000 C   0  0  0  0  0  0  0  0  0  0  0  0
   -4.9673    0.0000    0.0000 C   0  0  0  0  0  0  0  0  0  0  0  0
   -4.1746    0.0000    0.0000 C   0  0  0  0  0  0  0  0  0  0  0  0
   -5.1654    0.0000    0.0000 C   0  0  0  0  0  0  0  0  0  0  0  0
   -4.5710    0.0000    0.0000 C   0  0  0  0  0  0  0  0  0  0  0  0
   -4.3728    0.0000    0.0000 O   0  0  0  0  0  0  0  0  0  0  0  0
   -3.9765    0.0000    0.0000 N   0  0  0  0  0  0  0  0  0  0  0  0
   -3.1838    0.0000    0.0000 C   0  0  0  0  0  0  0  0  0  0  0  0
   -2.9857    0.0000    0.0000 C   0  0  0  0  0  0  0  0  0  0  0  0
   -2.1930    0.0000    0.0000 C   0  0  0  0  0  0  0  0  0  0  0  0
   -1.9949    0.0000    0.0000 C   0  0  0  0  0  0  0  0  0  0  0  0
   -2.5894    0.0000    0.0000 O   0  0  0  0  0  0  0  0  0  0  0  0
   -1.2023    0.0000    0.0000 O   0  0  0  0  0  0  0  0  0  0  0  0
   -2.5894    0.0000    0.0000 C   0  0  0  0  0  0  0  0  0  0  0  0
   -2.7875    0.0000    0.0000 O   0  0  0  0  0  0  0  0  0  0  0  0
   -1.7967    0.0000    0.0000 N   0  0  0  0  0  0  0  0  0  0  0  0
   -1.2023    0.0000    0.0000 C   0  0  0  0  0  0  0  0  0  0  0  0
   -1.4004    0.0000    0.0000 C   0  0  0  0  0  0  0  0  0  0  0  0
   -2.1930    0.0000    0.0000 C   0  0  0  0  0  0  0  0  0  0  0  0
   -0.8059    0.0000    0.0000 C   0  0  0  0  0  0  0  0  0  0  0  0
   -1.0041    0.0000    0.0000 C   0  0  0  0  0  0  0  0  0  0  0  0
   -0.4096    0.0000    0.0000 C   0  0  0  0  0  0  0  0  0  0  0  0
   -0.2115    0.0000    0.0000 O   0  0  0  0  0  0  0  0  0  0  0  0
    0.1849    0.0000    0.0000 N   0  0  0  0  0  0  0  0  0  0  0  0
    0.9775    0.0000    0.0000 C   0  0  0  0  0  0  0  0  0  0  0  0
    0.4942    0.0000    0.0000 C   0  0  0  0  0  0  0  0  0  0  0  0
    0.9808    0.0000    0.0000 C   0  0  0  0  0  0  0  0  0  0  0  0
    1.7648    0.0000    0.0000 C   0  0  0  0  0  0  0  0  0  0  0  0
    2.6055    0.0000    0.0000 C   0  0  0  0  0  0  0  0  0  0  0  0
    3.2717    0.0000    0.0000 N   0  0  0  0  0  0  0  0  0  0  0  0
    4.0263    0.0000    0.0000 C   0  0  0  0  0  0  0  0  0  0  0  0
    4.1145    0.0000    0.0000 O   0  0  0  0  0  0  0  0  0  0  0  0
    4.6925    0.0000    0.0000 C   0  0  0  0  0  0  0  0  0  0  0  0
    4.7808    0.0000    0.0000 C   0  0  0  0  0  0  0  0  0  0  0  0
    5.5353    0.0000    0.0000 C   0  0  0  0  0  0  0  0  0  0  0  0
    5.6235    0.0000    0.0000 N   0  0  0  0  0  0  0  0  0  0  0  0
    6.2015    0.0000    0.0000 O   0  0  0  0  0  0  0  0  0  0  0  0
    5.4470    0.0000    0.0000 N   0  0  0  0  0  0  0  0  0  0  0  0
    6.1132    0.0000    0.0000 C   0  0  0  0  0  0  0  0  0  0  0  0
    6.0249    0.0000    0.0000 O   0  0  0  0  0  0  0  0  0  0  0  0
    6.8677    0.0000    0.0000 C   0  0  0  0  0  0  0  0  0  0  0  0
    6.9560    0.0000    0.0000 C   0  0  0  0  0  0  0  0  0  0  0  0
    7.7105    0.0000    0.0000 C   0  0  0  0  0  0  0  0  0  0  0  0
    7.7988    0.0000    0.0000 O   0  0  0  0  0  0  0  0  0  0  0  0
    8.3767    0.0000    0.0000 O   0  0  0  0  0  0  0  0  0  0  0  0
    7.5340    0.0000    0.0000 N   0  0  0  0  0  0  0  0  0  0  0  0
    7.4457    0.0000    0.0000 C   0  0  0  0  0  0  0  0  0  0  0  0
    6.6912    0.0000    0.0000 O   0  0  0  0  0  0  0  0  0  0  0  0
    8.1119    0.0000    0.0000 C   0  0  0  0  0  0  0  0  0  0  0  0
    8.8664    0.0000    0.0000 C   0  0  0  0  0  0  0  0  0  0  0  0
    9.5327    0.0000    0.0000 C   0  0  0  0  0  0  0  0  0  0  0  0
    9.5306    0.0000    0.0000 C   0  0  0  0  0  0  0  0  0  0  0  0
   10.3146    0.0000    0.0000 N   0  0  0  0  0  0  0  0  0  0  0  0
   10.8012    0.0000    0.0000 C   0  0  0  0  0  0  0  0  0  0  0  0
   10.3179    0.0000    0.0000 N   0  0  0  0  0  0  0  0  0  0  0  0
    8.0236    0.0000    0.0000 N   0  0  0  0  0  0  0  0  0  0  0  0
    7.2691    0.0000    0.0000 C   0  0  0  0  0  0  0  0  0  0  0  0
    7.1809    0.0000    0.0000 O   0  0  0  0  0  0  0  0  0  0  0  0
    6.6029    0.0000    0.0000 C   0  0  0  0  0  0  0  0  0  0  0  0
    6.7724    0.0000    0.0000 C   0  0  0  0  0  0  0  0  0  0  0  0
    6.1580    0.0000    0.0000 C   0  0  0  0  0  0  0  0  0  0  0  0
    6.3275    0.0000    0.0000 C   0  0  0  0  0  0  0  0  0  0  0  0
    5.7130    0.0000    0.0000 C   0  0  0  0  0  0  0  0  0  0  0  0
    4.9290    0.0000    0.0000 C   0  0  0  0  0  0  0  0  0  0  0  0
    4.7595    0.0000    0.0000 C   0  0  0  0  0  0  0  0  0  0  0  0
    5.3740    0.0000    0.0000 C   0  0  0  0  0  0  0  0  0  0  0  0
    5.8484    0.0000    0.0000 N   0  0  0  0  0  0  0  0  0  0  0  0
    5.1822    0.0000    0.0000 C   0  0  0  0  0  0  0  0  0  0  0  0
    5.2704    0.0000    0.0000 O   0  0  0  0  0  0  0  0  0  0  0  0
    4.4277    0.0000    0.0000 C   0  0  0  0  0  0  0  0  0  0  0  0
    3.7614    0.0000    0.0000 N   0  0  0  0  0  0  0  0  0  0  0  0
    3.0069    0.0000    0.0000 C   0  0  0  0  0  0  0  0  0  0  0  0
    2.9186    0.0000    0.0000 O   0  0  0  0  0  0  0  0  0  0  0  0
    2.3407    0.0000    0.0000 C   0  0  0  0  0  0  0  0  0  0  0  0
    2.2524    0.0000    0.0000 C   0  0  0  0  0  0  0  0  0  0  0  0
    1.4979    0.0000    0.0000 C   0  0  0  0  0  0  0  0  0  0  0  0
    1.4096    0.0000    0.0000 C   0  0  0  0  0  0  0  0  0  0  0  0
    0.6551    0.0000    0.0000 N   0  0  0  0  0  0  0  0  0  0  0  0
    1.5862    0.0000    0.0000 N   0  0  0  0  0  0  0  0  0  0  0  0
    0.9199    0.0000    0.0000 C   0  0  0  0  0  0  0  0  0  0  0  0
    0.1729    0.0000    0.0000 O   0  0  0  0  0  0  0  0  0  0  0  0
    4.3394    0.0000    0.0000 C   0  0  0  0  0  0  0  0  0  0  0  0
    4.3373    0.0000    0.0000 C   0  0  0  0  0  0  0  0  0  0  0  0
    3.5849    0.0000    0.0000 C   0  0  0  0  0  0  0  0  0  0  0  0
    3.4966    0.0000    0.0000 C   0  0  0  0  0  0  0  0  0  0  0  0
  1  2  1  0      
  2  3  1  0      
  3  4  1  0      
  3  5  1  0      
  5  6  1  0      
  5  7  1  0      
  7  8  2  0      
  8  9  1  0      
  9 10  1  0      
 10 11  1  0      
  7 11  1  0      
 10 12  1  0      
 12 13  2  0      
 12 14  1  0      
 14 15  1  0      
 15 16  1  0      
 16 17  1  0      
 17 18  1  0      
 17 19  1  0      
 15 20  1  0      
 20 21  2  0      
 20 22  1  0      
 22 23  1  0      
 23 24  1  0      
 24 25  1  0      
 25 26  1  0      
 26 27  1  0      
 26 28  2  0      
 23 29  1  0      
 29 30  2  0      
 29 31  1  0      
 31 32  1  0      
 32 33  1  0      
 33 34  1  0      
 33 35  1  0      
 35 36  1  0      
 32 37  1  0      
 37 38  2  0      
 37 39  1  0      
 39 40  1  0      
 40 41  1  0      
 41 42  1  0      
 42 43  1  0      
 43 44  1  0      
 44 45  1  0      
 45 46  1  0      
 46 47  2  0      
 46 48  1  0      
 48 49  1  0      
 49 50  1  0      
 50 51  1  0      
 50 52  2  0      
 48 53  1  0      
 53 54  1  0      
 54 55  2  0      
 54 56  1  0      
 56 57  1  0      
 57 58  1  0      
 58 59  1  0      
 58 60  2  0      
 56 61  1  0      
 61 62  1  0      
 62 63  2  0      
 62 64  1  0      
 64 65  1  0      
 65 66  1  0      
 66 67  2  0      
 67 68  1  0      
 68 69  2  0      
 69 70  1  0      
 66 70  1  0      
 64 71  1  0      
 71 72  1  0      
 72 73  2  0      
 72 74  1  0      
 74 75  1  0      
 75 76  1  0      
 76 77  2  0      
 77 78  1  0      
 78 79  2  0      
 79 80  1  0      
 80 81  2  0      
 76 81  1  0      
 74 82  1  0      
 82 83  1  0      
 83 84  2  0      
 83 85  1  0      
 85 86  1  0      
 86 87  1  0      
 87 88  2  0      
 87 89  1  0      
 89 90  1  0      
 90 91  1  0      
 91 92  1  0      
 92 93  1  0      
 89 94  1  0      
 94 95  1  0      
 40 95  1  0      
 95 96  2  0      
 85 97  1  0      
 97 98  1  0      
 97 99  1  0      
 99100  1  0      
M  END
>  <Bioactivity>
Bacitracin is a mixture of related cyclic polypeptides produced by organisms of the licheniformis group of Bacillus subtilis var Tracy, which disrupts both gram positive and gram negative bacteria by 
interfering with cell wall and peptidoglycan synthesis.

>  <CAS>
1405-87-4

>  <Col>
5

>  <Formula>
C66H103N17O16S

>  <ID>
T1226

>  <Index>
184

>  <MOLENAME>
Bacitracin

>  <MolWt>
1422.73

>  <Pathways>
Microbiology & Virology

>  <Plate>
PLATE 003

>  <QR code>
1151477030

>  <Receptor>
Others

>  <Reference>
1. Toscano WA Jr, et al. Pharmacol Ther, 1982, 16(2), 199-210.

>  <Row>
C

>  <SMILES>
CCC(C)C(N)C1=NCC(S1)C(=O)NC(CC(C)C)C(=O)NC(CCC(O)=O)C(=O)NC(C(C)CC)C(=O)NC1CCCCNC(=O)C(CC(N)=O)NC(=O)C(CC(O)=O)NC(=O)C(CC2=CN=CN2)NC(=O)C(CC2=CC=CC=C2)NC(=O)C(NC(=O)C(CCCN)NC1=O)C(C)CC

>  <Target>
Antibiotic

>  <Weight>
10.4mg

$$$$
Lab-1.sdf
  ChemDraw05232018482D

 86 85  0  0  0  0  0  0  0  0999 V2000
  -10.5693    0.0000    0.0000 O   0  0  0  0  0  0  0  0  0  0  0  0
  -10.5693    0.0000    0.0000 S   0  0  0  0  0  0  0  0  0  0  0  0
  -10.5693    0.0000    0.0000 O   0  0  0  0  0  0  0  0  0  0  0  0
   -9.7443    0.0000    0.0000 O   0  0  0  0  0  0  0  0  0  0  0  0
  -11.3943    0.0000    0.0000 O   0  0  0  0  0  0  0  0  0  0  0  0
   -7.3872    0.0000    0.0000 C   0  0  0  0  0  0  0  0  0  0  0  0
   -6.6246    0.0000    0.0000 C   0  0  0  0  0  0  0  0  0  0  0  0
   -5.9708    0.0000    0.0000 C   0  0  0  0  0  0  0  0  0  0  0  0
   -6.0798    0.0000    0.0000 C   0  0  0  0  0  0  0  0  0  0  0  0
   -5.2081    0.0000    0.0000 C   0  0  0  0  0  0  0  0  0  0  0  0
   -4.5544    0.0000    0.0000 C   0  0  0  0  0  0  0  0  0  0  0  0
   -3.7917    0.0000    0.0000 C   0  0  0  0  0  0  0  0  0  0  0  0
   -3.1380    0.0000    0.0000 C   0  0  0  0  0  0  0  0  0  0  0  0
   -3.2469    0.0000    0.0000 O   0  0  0  0  0  0  0  0  0  0  0  0
   -2.3753    0.0000    0.0000 N   0  0  0  0  0  0  0  0  0  0  0  0
   -1.7216    0.0000    0.0000 C   0  0  0  0  0  0  0  0  0  0  0  0
   -1.8305    0.0000    0.0000 C   0  0  0  0  0  0  0  0  0  0  0  0
   -1.1768    0.0000    0.0000 C   0  0  0  0  0  0  0  0  0  0  0  0
   -0.4141    0.0000    0.0000 N   0  0  0  0  0  0  0  0  0  0  0  0
   -0.9589    0.0000    0.0000 C   0  0  0  0  0  0  0  0  0  0  0  0
   -0.8499    0.0000    0.0000 O   0  0  0  0  0  0  0  0  0  0  0  0
   -0.3051    0.0000    0.0000 N   0  0  0  0  0  0  0  0  0  0  0  0
    0.4576    0.0000    0.0000 C   0  0  0  0  0  0  0  0  0  0  0  0
    0.5665    0.0000    0.0000 C   0  0  0  0  0  0  0  0  0  0  0  0
    0.9987    0.0000    0.0000 C   0  0  0  0  0  0  0  0  0  0  0  0
   -0.0872    0.0000    0.0000 O   0  0  0  0  0  0  0  0  0  0  0  0
    1.1113    0.0000    0.0000 C   0  0  0  0  0  0  0  0  0  0  0  0
    1.0023    0.0000    0.0000 O   0  0  0  0  0  0  0  0  0  0  0  0
    1.8740    0.0000    0.0000 N   0  0  0  0  0  0  0  0  0  0  0  0
    1.9829    0.0000    0.0000 C   0  0  0  0  0  0  0  0  0  0  0  0
    1.3292    0.0000    0.0000 C   0  0  0  0  0  0  0  0  0  0  0  0
    1.4382    0.0000    0.0000 C   0  0  0  0  0  0  0  0  0  0  0  0
    2.2009    0.0000    0.0000 N   0  0  0  0  0  0  0  0  0  0  0  0
    2.7456    0.0000    0.0000 C   0  0  0  0  0  0  0  0  0  0  0  0
    2.8546    0.0000    0.0000 O   0  0  0  0  0  0  0  0  0  0  0  0
    3.3994    0.0000    0.0000 N   0  0  0  0  0  0  0  0  0  0  0  0
    4.1621    0.0000    0.0000 C   0  0  0  0  0  0  0  0  0  0  0  0
    4.2003    0.0000    0.0000 C   0  0  0  0  0  0  0  0  0  0  0  0
    4.9959    0.0000    0.0000 C   0  0  0  0  0  0  0  0  0  0  0  0
    5.4493    0.0000    0.0000 N   0  0  0  0  0  0  0  0  0  0  0  0
    6.3120    0.0000    0.0000 C   0  0  0  0  0  0  0  0  0  0  0  0
    6.9045    0.0000    0.0000 O   0  0  0  0  0  0  0  0  0  0  0  0
    6.5303    0.0000    0.0000 C   0  0  0  0  0  0  0  0  0  0  0  0
    7.3284    0.0000    0.0000 N   0  0  0  0  0  0  0  0  0  0  0  0
    7.5467    0.0000    0.0000 C   0  0  0  0  0  0  0  0  0  0  0  0
    6.9670    0.0000    0.0000 O   0  0  0  0  0  0  0  0  0  0  0  0
    8.3449    0.0000    0.0000 C   0  0  0  0  0  0  0  0  0  0  0  0
    8.9247    0.0000    0.0000 C   0  0  0  0  0  0  0  0  0  0  0  0
    9.7229    0.0000    0.0000 C   0  0  0  0  0  0  0  0  0  0  0  0
   10.3027    0.0000    0.0000 N   0  0  0  0  0  0  0  0  0  0  0  0
    8.5632    0.0000    0.0000 N   0  0  0  0  0  0  0  0  0  0  0  0
    9.3613    0.0000    0.0000 C   0  0  0  0  0  0  0  0  0  0  0  0
    9.9412    0.0000    0.0000 O   0  0  0  0  0  0  0  0  0  0  0  0
    9.5796    0.0000    0.0000 C   0  0  0  0  0  0  0  0  0  0  0  0
   10.3778    0.0000    0.0000 C   0  0  0  0  0  0  0  0  0  0  0  0
   10.5961    0.0000    0.0000 C   0  0  0  0  0  0  0  0  0  0  0  0
   11.3943    0.0000    0.0000 N   0  0  0  0  0  0  0  0  0  0  0  0
    8.9998    0.0000    0.0000 N   0  0  0  0  0  0  0  0  0  0  0  0
    8.2016    0.0000    0.0000 C   0  0  0  0  0  0  0  0  0  0  0  0
    7.9833    0.0000    0.0000 O   0  0  0  0  0  0  0  0  0  0  0  0
    7.6218    0.0000    0.0000 C   0  0  0  0  0  0  0  0  0  0  0  0
    7.8401    0.0000    0.0000 C   0  0  0  0  0  0  0  0  0  0  0  0
    7.2603    0.0000    0.0000 C   0  0  0  0  0  0  0  0  0  0  0  0
    7.4786    0.0000    0.0000 C   0  0  0  0  0  0  0  0  0  0  0  0
    6.4622    0.0000    0.0000 C   0  0  0  0  0  0  0  0  0  0  0  0
    6.8237    0.0000    0.0000 N   0  0  0  0  0  0  0  0  0  0  0  0
    6.6054    0.0000    0.0000 C   0  0  0  0  0  0  0  0  0  0  0  0
    7.1852    0.0000    0.0000 O   0  0  0  0  0  0  0  0  0  0  0  0
    5.8073    0.0000    0.0000 C   0  0  0  0  0  0  0  0  0  0  0  0
    5.2274    0.0000    0.0000 C   0  0  0  0  0  0  0  0  0  0  0  0
    5.4457    0.0000    0.0000 C   0  0  0  0  0  0  0  0  0  0  0  0
    6.2439    0.0000    0.0000 C   0  0  0  0  0  0  0  0  0  0  0  0
    4.8659    0.0000    0.0000 C   0  0  0  0  0  0  0  0  0  0  0  0
    5.5890    0.0000    0.0000 N   0  0  0  0  0  0  0  0  0  0  0  0
    4.7908    0.0000    0.0000 C   0  0  0  0  0  0  0  0  0  0  0  0
    4.2109    0.0000    0.0000 O   0  0  0  0  0  0  0  0  0  0  0  0
    4.5725    0.0000    0.0000 C   0  0  0  0  0  0  0  0  0  0  0  0
    3.9926    0.0000    0.0000 C   0  0  0  0  0  0  0  0  0  0  0  0
    3.1945    0.0000    0.0000 C   0  0  0  0  0  0  0  0  0  0  0  0
    2.6146    0.0000    0.0000 N   0  0  0  0  0  0  0  0  0  0  0  0
    3.7743    0.0000    0.0000 N   0  0  0  0  0  0  0  0  0  0  0  0
    3.5560    0.0000    0.0000 C   0  0  0  0  0  0  0  0  0  0  0  0
    3.1260    0.0000    0.0000 O   0  0  0  0  0  0  0  0  0  0  0  0
    7.1101    0.0000    0.0000 C   0  0  0  0  0  0  0  0  0  0  0  0
    7.4011    0.0000    0.0000 C   0  0  0  0  0  0  0  0  0  0  0  0
    7.9082    0.0000    0.0000 O   0  0  0  0  0  0  0  0  0  0  0  0
  1  2  1  0      
  2  3  1  0      
  2  4  2  0      
  2  5  2  0      
  6  7  1  0      
  7  8  1  0      
  8  9  1  0      
  8 10  1  0      
 10 11  1  0      
 11 12  1  0      
 12 13  1  0      
 13 14  2  0      
 13 15  1  0      
 15 16  1  0      
 16 17  1  0      
 17 18  1  0      
 18 19  1  0      
 16 20  1  0      
 20 21  2  0      
 20 22  1  0      
 22 23  1  0      
 23 24  1  0      
 24 25  1  0      
 24 26  1  0      
 23 27  1  0      
 27 28  2  0      
 27 29  1  0      
 29 30  1  0      
 30 31  1  0      
 31 32  1  0      
 32 33  1  0      
 30 34  1  0      
 34 35  2  0      
 34 36  1  0      
 36 37  1  0      
 37 38  1  0      
 38 39  1  0      
 39 40  1  0      
 40 41  1  0      
 41 42  2  0      
 41 43  1  0      
 43 44  1  0      
 44 45  1  0      
 45 46  2  0      
 45 47  1  0      
 47 48  1  0      
 48 49  1  0      
 49 50  1  0      
 47 51  1  0      
 51 52  1  0      
 52 53  2  0      
 52 54  1  0      
 54 55  1  0      
 55 56  1  0      
 56 57  1  0      
 54 58  1  0      
 58 59  1  0      
 59 60  2  0      
 59 61  1  0      
 61 62  1  0      
 62 63  1  0      
 63 64  1  0      
 63 65  1  0      
 61 66  1  0      
 66 67  1  0      
 67 68  2  0      
 67 69  1  0      
 69 70  1  0      
 70 71  1  0      
 71 72  1  0      
 71 73  1  0      
 69 74  1  0      
 74 75  1  0      
 75 76  2  0      
 75 77  1  0      
 77 78  1  0      
 78 79  1  0      
 79 80  1  0      
 77 81  1  0      
 81 82  1  0      
 37 82  1  0      
 82 83  2  0      
 43 84  1  0      
 84 85  1  0      
 84 86  1  0      
M  END
>  <Bioactivity>
Colistin is a cyclic cationic decapeptide linked to a fatty acid side chain, it belongs to a group of similarly structured bacterial antimicrobial peptides.

>  <CAS>
1264-72-8

>  <Col>
6

>  <Formula>
C52H100N16O17S

>  <ID>
T1245

>  <Index>
185

>  <MOLENAME>
Colistin sulfate

>  <MolWt>
1253.51

>  <Pathways>
Microbiology & Virology

>  <Plate>
PLATE 003

>  <QR code>
1151477029

>  <Receptor>
Cell wall

>  <Reference>
1. Evans ME, et al. Ann PharmacOthers, 1999, 33(9), 960-967.

>  <Row>
C

>  <SMILES>
OS(O)(=O)=O.CCC(C)CCCC(=O)NC(CCN)C(=O)NC(C(C)O)C(=O)NC(CCN)C(=O)NC1CCNC(=O)C(NC(=O)C(CCN)NC(=O)C(CCN)NC(=O)C(CC(C)C)NC(=O)C(CC(C)C)NC(=O)C(CCN)NC1=O)C(C)O

>  <Target>
Antibacterial

>  <Weight>
10.3mg

$$$$
Lab-1.sdf
  ChemDraw05232018482D

 32 34  0  0  0  0  0  0  0  0999 V2000
    2.8578    0.0000    0.0000 N   0  0  0  0  0  0  0  0  0  0  0  0
    2.1433    0.0000    0.0000 C   0  0  0  0  0  0  0  0  0  0  0  0
    2.1433    0.0000    0.0000 C   0  0  0  0  0  0  0  0  0  0  0  0
    1.4289    0.0000    0.0000 O   0  0  0  0  0  0  0  0  0  0  0  0
    1.4289    0.0000    0.0000 C   0  0  0  0  0  0  0  0  0  0  0  0
    0.7144    0.0000    0.0000 O   0  0  0  0  0  0  0  0  0  0  0  0
   -0.0001    0.0000    0.0000 C   0  0  0  0  0  0  0  0  0  0  0  0
   -0.0001    0.0000    0.0000 C   0  0  0  0  0  0  0  0  0  0  0  0
    0.7144    0.0000    0.0000 N   0  0  0  0  0  0  0  0  0  0  0  0
   -0.7145    0.0000    0.0000 C   0  0  0  0  0  0  0  0  0  0  0  0
   -1.4289    0.0000    0.0000 C   0  0  0  0  0  0  0  0  0  0  0  0
   -2.1435    0.0000    0.0000 N   0  0  0  0  0  0  0  0  0  0  0  0
   -1.4289    0.0000    0.0000 C   0  0  0  0  0  0  0  0  0  0  0  0
   -2.1435    0.0000    0.0000 O   0  0  0  0  0  0  0  0  0  0  0  0
   -2.1435    0.0000    0.0000 C   0  0  0  0  0  0  0  0  0  0  0  0
   -1.4289    0.0000    0.0000 O   0  0  0  0  0  0  0  0  0  0  0  0
   -1.4289    0.0000    0.0000 C   0  0  0  0  0  0  0  0  0  0  0  0
   -0.7145    0.0000    0.0000 C   0  0  0  0  0  0  0  0  0  0  0  0
   -0.0001    0.0000    0.0000 O   0  0  0  0  0  0  0  0  0  0  0  0
   -2.1435    0.0000    0.0000 C   0  0  0  0  0  0  0  0  0  0  0  0
   -2.1435    0.0000    0.0000 O   0  0  0  0  0  0  0  0  0  0  0  0
   -2.8579    0.0000    0.0000 C   0  0  0  0  0  0  0  0  0  0  0  0
   -3.5723    0.0000    0.0000 N   0  0  0  0  0  0  0  0  0  0  0  0
   -2.8579    0.0000    0.0000 C   0  0  0  0  0  0  0  0  0  0  0  0
   -3.5723    0.0000    0.0000 O   0  0  0  0  0  0  0  0  0  0  0  0
   -0.7145    0.0000    0.0000 C   0  0  0  0  0  0  0  0  0  0  0  0
   -0.7145    0.0000    0.0000 O   0  0  0  0  0  0  0  0  0  0  0  0
    2.1433    0.0000    0.0000 C   0  0  0  0  0  0  0  0  0  0  0  0
    2.1433    0.0000    0.0000 N   0  0  0  0  0  0  0  0  0  0  0  0
    2.8578    0.0000    0.0000 C   0  0  0  0  0  0  0  0  0  0  0  0
    2.8578    0.0000    0.0000 C   0  0  0  0  0  0  0  0  0  0  0  0
    3.5723    0.0000    0.0000 O   0  0  0  0  0  0  0  0  0  0  0  0
  1  2  1  0      
  2  3  1  0      
  3  4  1  0      
  4  5  1  0      
  5  6  1  0      
  6  7  1  0      
  7  8  1  0      
  8  9  1  0      
  8 10  1  0      
 10 11  1  0      
 11 12  1  0      
 11 13  1  0      
 13 14  1  0      
 14 15  1  0      
 15 16  1  0      
 16 17  1  0      
 17 18  1  0      
 18 19  1  0      
 17 20  1  0      
 20 21  1  0      
 20 22  1  0      
 22 23  1  0      
 22 24  1  0      
 15 24  1  0      
 24 25  1  0      
 13 26  1  0      
  7 26  1  0      
 26 27  1  0      
  5 28  1  0      
 28 29  1  0      
 28 30  1  0      
 30 31  1  0      
  3 31  1  0      
 31 32  1  0      
M  END
>  <Bioactivity>
Tobramycin is an aminoglycoside, broad-spectrum antibiotic produced by Streptomyces tenebrarius.

>  <CAS>
32986-56-4

>  <Col>
7

>  <Formula>
C18H37N5O9

>  <ID>
T1255

>  <Index>
186

>  <MOLENAME>
Tobramycin

>  <MolWt>
467.51

>  <Pathways>
Microbiology & Virology

>  <Plate>
PLATE 003

>  <QR code>
1151477028

>  <Receptor>
30S ribosomal protein

>  <Reference>
1. Yang G, et al. J Med Chem. 2006 Sep 7;49(18):5478-90.

>  <Row>
C

>  <SMILES>
NCC1OC(OC2C(N)CC(N)C(OC3OC(CO)C(O)C(N)C3O)C2O)C(N)CC1O

>  <Target>
Antibacterial

>  <Weight>
10.2mg

$$$$
Lab-1.sdf
  ChemDraw05232018482D

 65 72  0  0  0  0  0  0  0  0999 V2000
   -6.1029    0.0000    0.0000 O   0  0  0  0  0  0  0  0  0  0  0  0
   -6.1029    0.0000    0.0000 S   0  0  0  0  0  0  0  0  0  0  0  0
   -6.1029    0.0000    0.0000 O   0  0  0  0  0  0  0  0  0  0  0  0
   -5.2779    0.0000    0.0000 O   0  0  0  0  0  0  0  0  0  0  0  0
   -6.9279    0.0000    0.0000 O   0  0  0  0  0  0  0  0  0  0  0  0
    6.9279    0.0000    0.0000 C   0  0  0  0  0  0  0  0  0  0  0  0
    6.2273    0.0000    0.0000 C   0  0  0  0  0  0  0  0  0  0  0  0
    5.4997    0.0000    0.0000 C   0  0  0  0  0  0  0  0  0  0  0  0
    5.9868    0.0000    0.0000 O   0  0  0  0  0  0  0  0  0  0  0  0
    4.8870    0.0000    0.0000 C   0  0  0  0  0  0  0  0  0  0  0  0
    4.0263    0.0000    0.0000 C   0  0  0  0  0  0  0  0  0  0  0  0
    4.1217    0.0000    0.0000 C   0  0  0  0  0  0  0  0  0  0  0  0
    4.3618    0.0000    0.0000 N   0  0  0  0  0  0  0  0  0  0  0  0
    5.2064    0.0000    0.0000 C   0  0  0  0  0  0  0  0  0  0  0  0
    3.6897    0.0000    0.0000 C   0  0  0  0  0  0  0  0  0  0  0  0
    2.8334    0.0000    0.0000 C   0  0  0  0  0  0  0  0  0  0  0  0
    2.1502    0.0000    0.0000 C   0  0  0  0  0  0  0  0  0  0  0  0
    1.9668    0.0000    0.0000 C   0  0  0  0  0  0  0  0  0  0  0  0
    1.1451    0.0000    0.0000 N   0  0  0  0  0  0  0  0  0  0  0  0
    0.8208    0.0000    0.0000 C   0  0  0  0  0  0  0  0  0  0  0  0
    0.0400    0.0000    0.0000 C   0  0  0  0  0  0  0  0  0  0  0  0
   -0.1195    0.0000    0.0000 C   0  0  0  0  0  0  0  0  0  0  0  0
    0.5016    0.0000    0.0000 C   0  0  0  0  0  0  0  0  0  0  0  0
    1.2824    0.0000    0.0000 C   0  0  0  0  0  0  0  0  0  0  0  0
    1.4419    0.0000    0.0000 C   0  0  0  0  0  0  0  0  0  0  0  0
    2.3688    0.0000    0.0000 C   0  0  0  0  0  0  0  0  0  0  0  0
    3.1773    0.0000    0.0000 C   0  0  0  0  0  0  0  0  0  0  0  0
    1.6115    0.0000    0.0000 C   0  0  0  0  0  0  0  0  0  0  0  0
    1.0528    0.0000    0.0000 O   0  0  0  0  0  0  0  0  0  0  0  0
    0.9494    0.0000    0.0000 O   0  0  0  0  0  0  0  0  0  0  0  0
    0.1921    0.0000    0.0000 C   0  0  0  0  0  0  0  0  0  0  0  0
    2.1561    0.0000    0.0000 C   0  0  0  0  0  0  0  0  0  0  0  0
    2.7401    0.0000    0.0000 C   0  0  0  0  0  0  0  0  0  0  0  0
    3.5367    0.0000    0.0000 O   0  0  0  0  0  0  0  0  0  0  0  0
    4.1207    0.0000    0.0000 C   0  0  0  0  0  0  0  0  0  0  0  0
    2.5274    0.0000    0.0000 C   0  0  0  0  0  0  0  0  0  0  0  0
    1.7307    0.0000    0.0000 C   0  0  0  0  0  0  0  0  0  0  0  0
    1.3569    0.0000    0.0000 N   0  0  0  0  0  0  0  0  0  0  0  0
    1.7323    0.0000    0.0000 C   0  0  0  0  0  0  0  0  0  0  0  0
    2.5562    0.0000    0.0000 O   0  0  0  0  0  0  0  0  0  0  0  0
    0.5420    0.0000    0.0000 C   0  0  0  0  0  0  0  0  0  0  0  0
    0.4120    0.0000    0.0000 C   0  0  0  0  0  0  0  0  0  0  0  0
    0.9306    0.0000    0.0000 C   0  0  0  0  0  0  0  0  0  0  0  0
    0.4805    0.0000    0.0000 C   0  0  0  0  0  0  0  0  0  0  0  0
   -0.4883    0.0000    0.0000 N   0  0  0  0  0  0  0  0  0  0  0  0
   -1.2588    0.0000    0.0000 C   0  0  0  0  0  0  0  0  0  0  0  0
   -1.8994    0.0000    0.0000 C   0  0  0  0  0  0  0  0  0  0  0  0
   -1.7695    0.0000    0.0000 C   0  0  0  0  0  0  0  0  0  0  0  0
   -0.9990    0.0000    0.0000 C   0  0  0  0  0  0  0  0  0  0  0  0
   -1.6396    0.0000    0.0000 C   0  0  0  0  0  0  0  0  0  0  0  0
   -2.4101    0.0000    0.0000 C   0  0  0  0  0  0  0  0  0  0  0  0
   -0.3584    0.0000    0.0000 C   0  0  0  0  0  0  0  0  0  0  0  0
   -0.8690    0.0000    0.0000 C   0  0  0  0  0  0  0  0  0  0  0  0
   -1.5096    0.0000    0.0000 O   0  0  0  0  0  0  0  0  0  0  0  0
   -2.2802    0.0000    0.0000 C   0  0  0  0  0  0  0  0  0  0  0  0
   -2.9208    0.0000    0.0000 C   0  0  0  0  0  0  0  0  0  0  0  0
   -2.8641    0.0000    0.0000 O   0  0  0  0  0  0  0  0  0  0  0  0
   -0.0985    0.0000    0.0000 C   0  0  0  0  0  0  0  0  0  0  0  0
    0.3986    0.0000    0.0000 O   0  0  0  0  0  0  0  0  0  0  0  0
   -0.3663    0.0000    0.0000 C   0  0  0  0  0  0  0  0  0  0  0  0
   -1.1760    0.0000    0.0000 O   0  0  0  0  0  0  0  0  0  0  0  0
    0.1755    0.0000    0.0000 O   0  0  0  0  0  0  0  0  0  0  0  0
   -0.0922    0.0000    0.0000 C   0  0  0  0  0  0  0  0  0  0  0  0
    1.1467    0.0000    0.0000 C   0  0  0  0  0  0  0  0  0  0  0  0
    1.3594    0.0000    0.0000 C   0  0  0  0  0  0  0  0  0  0  0  0
  1  2  1  0      
  2  3  1  0      
  2  4  2  0      
  2  5  2  0      
  6  7  1  0      
  7  8  1  0      
  8  9  1  0      
  8 10  1  0      
 10 11  1  0      
 11 12  1  0      
 12 13  1  0      
 13 14  1  0      
  8 14  1  0      
 13 15  1  0      
 15 16  1  0      
 16 17  1  0      
 17 18  2  0      
 18 19  1  0      
 19 20  1  0      
 20 21  2  0      
 21 22  1  0      
 22 23  2  0      
 23 24  1  0      
 24 25  2  0      
 17 25  1  0      
 20 25  1  0      
 18 26  1  0      
 26 27  1  0      
 11 27  1  0      
 26 28  1  0      
 28 29  2  0      
 28 30  1  0      
 30 31  1  0      
 26 32  1  0      
 32 33  2  0      
 33 34  1  0      
 34 35  1  0      
 33 36  1  0      
 36 37  2  0      
 37 38  1  0      
 38 39  1  0      
 39 40  2  0      
 38 41  1  0      
 41 42  1  0      
 42 43  1  0      
 43 44  1  0      
 44 45  1  0      
 45 46  1  0      
 46 47  1  0      
 47 48  2  0      
 48 49  1  0      
 49 50  1  0      
 50 51  1  0      
 49 52  1  0      
 42 52  1  0      
 45 52  1  0      
 49 53  1  0      
 53 54  1  0      
 54 55  1  0      
 55 56  1  0      
 55 57  2  0      
 53 58  1  0      
 41 58  1  0      
 58 59  1  0      
 58 60  1  0      
 60 61  2  0      
 60 62  1  0      
 62 63  1  0      
 42 64  1  0      
 37 64  1  0      
 64 65  2  0      
 32 65  1  0      
M  END
>  <Bioactivity>
Vincristine (sulfate) is an inhibitor of polymerization of microtubules by binding to tubulin with IC50?of 32 ¦ÌM.

>  <CAS>
2068-78-2

>  <Col>
8

>  <Formula>
C46H58N4O14S

>  <ID>
T1270

>  <Index>
187

>  <MOLENAME>
Vincristine sulfate

>  <MolWt>
923.04

>  <Pathways>
Cell Cycle/Checkpoint

>  <Plate>
PLATE 003

>  <QR code>
1151477027

>  <Receptor>
MRAP; Microtubules

>  <Reference>
1. Jordan MA, et al. Y Res, 1985, 45(6), 2741-2747.

>  <Row>
C

>  <SMILES>
OS(O)(=O)=O.CCC1(O)CC2CN(C1)CCC1=C(NC3=CC=CC=C13)C(C2)(C(=O)OC)C1=C(OC)C=C2N(C=O)C3C4(CCN5CC=CC(CC)(C45)C(OC(C)=O)C3(O)C(=O)OC)C2=C1

>  <Target>
Microtubule Associated inhibitor; MRP inhibitor

>  <Weight>
10.1mg

$$$$
Lab-1.sdf
  ChemDraw05232018482D

 27 29  0  0  0  0  0  0  0  0999 V2000
    2.5006    0.0000    0.0000 C   0  0  0  0  0  0  0  0  0  0  0  0
    2.5006    0.0000    0.0000 C   0  0  0  0  0  0  0  0  0  0  0  0
    3.2151    0.0000    0.0000 O   0  0  0  0  0  0  0  0  0  0  0  0
    1.7862    0.0000    0.0000 O   0  0  0  0  0  0  0  0  0  0  0  0
    1.7862    0.0000    0.0000 C   0  0  0  0  0  0  0  0  0  0  0  0
    2.5006    0.0000    0.0000 C   0  0  0  0  0  0  0  0  0  0  0  0
    2.5006    0.0000    0.0000 C   0  0  0  0  0  0  0  0  0  0  0  0
    1.7862    0.0000    0.0000 C   0  0  0  0  0  0  0  0  0  0  0  0
    1.0717    0.0000    0.0000 C   0  0  0  0  0  0  0  0  0  0  0  0
    1.0717    0.0000    0.0000 C   0  0  0  0  0  0  0  0  0  0  0  0
    0.3572    0.0000    0.0000 C   0  0  0  0  0  0  0  0  0  0  0  0
    0.3572    0.0000    0.0000 O   0  0  0  0  0  0  0  0  0  0  0  0
   -0.3573    0.0000    0.0000 C   0  0  0  0  0  0  0  0  0  0  0  0
   -1.0717    0.0000    0.0000 C   0  0  0  0  0  0  0  0  0  0  0  0
   -1.0717    0.0000    0.0000 O   0  0  0  0  0  0  0  0  0  0  0  0
   -1.7862    0.0000    0.0000 C   0  0  0  0  0  0  0  0  0  0  0  0
   -2.5007    0.0000    0.0000 C   0  0  0  0  0  0  0  0  0  0  0  0
   -1.7862    0.0000    0.0000 O   0  0  0  0  0  0  0  0  0  0  0  0
   -1.7862    0.0000    0.0000 C   0  0  0  0  0  0  0  0  0  0  0  0
   -1.7862    0.0000    0.0000 C   0  0  0  0  0  0  0  0  0  0  0  0
   -1.0717    0.0000    0.0000 C   0  0  0  0  0  0  0  0  0  0  0  0
   -0.3573    0.0000    0.0000 C   0  0  0  0  0  0  0  0  0  0  0  0
    0.3572    0.0000    0.0000 C   0  0  0  0  0  0  0  0  0  0  0  0
    0.3572    0.0000    0.0000 O   0  0  0  0  0  0  0  0  0  0  0  0
   -2.5007    0.0000    0.0000 C   0  0  0  0  0  0  0  0  0  0  0  0
   -3.2151    0.0000    0.0000 O   0  0  0  0  0  0  0  0  0  0  0  0
   -2.5007    0.0000    0.0000 O   0  0  0  0  0  0  0  0  0  0  0  0
  1  2  1  0      
  2  3  2  0      
  2  4  1  0      
  4  5  1  0      
  5  6  2  0      
  6  7  1  0      
  7  8  2  0      
  8  9  1  0      
  9 10  2  0      
  5 10  1  0      
 10 11  1  0      
 11 12  2  0      
 11 13  1  0      
 13 14  2  0      
 14 15  1  0      
 15 16  1  0      
 16 17  1  0      
 16 18  2  0      
 14 19  1  0      
 19 20  2  0      
 20 21  1  0      
 21 22  2  0      
 13 22  1  0      
 22 23  1  0      
  9 23  1  0      
 23 24  2  0      
 20 25  1  0      
 25 26  1  0      
 25 27  2  0      
M  END
>  <Bioactivity>
Diacerin is an inhibitor of pro-inflammatory cytokine Interleukin-1B (IL-1B) production, prescribed for osteoarthritis and chronic inflammatory arthritis.

>  <CAS>
13739-02-1

>  <Col>
9

>  <Formula>
C19H12O8

>  <ID>
T1273

>  <Index>
188

>  <MOLENAME>
Diacerein

>  <MolWt>
368.29

>  <Pathways>
Immunology/Inflammation

>  <Plate>
PLATE 003

>  <QR code>
1151477026

>  <Receptor>
IL-1¦Â

>  <Reference>
1. Yaron M, et al. Osteoarthritis Cartilage, 1999, 7(3), 272-280.

>  <Row>
C

>  <SMILES>
CC(=O)OC1=CC=CC2=C1C(=O)C1=C(OC(C)=O)C=C(C=C1C2=O)C(O)=O

>  <Target>
IL inhibitor

>  <Weight>
10.2mg

$$$$
Lab-1.sdf
  ChemDraw05232018482D

 33 37  0  0  0  0  0  0  0  0999 V2000
   -3.2655    0.0000    0.0000 C   0  0  0  0  0  0  0  0  0  0  0  0
   -2.4950    0.0000    0.0000 C   0  0  0  0  0  0  0  0  0  0  0  0
   -1.8544    0.0000    0.0000 C   0  0  0  0  0  0  0  0  0  0  0  0
   -2.6249    0.0000    0.0000 C   0  0  0  0  0  0  0  0  0  0  0  0
   -2.7548    0.0000    0.0000 C   0  0  0  0  0  0  0  0  0  0  0  0
   -2.1142    0.0000    0.0000 C   0  0  0  0  0  0  0  0  0  0  0  0
   -1.3437    0.0000    0.0000 N   0  0  0  0  0  0  0  0  0  0  0  0
   -0.3748    0.0000    0.0000 C   0  0  0  0  0  0  0  0  0  0  0  0
    0.0752    0.0000    0.0000 C   0  0  0  0  0  0  0  0  0  0  0  0
   -0.4433    0.0000    0.0000 C   0  0  0  0  0  0  0  0  0  0  0  0
   -1.2138    0.0000    0.0000 C   0  0  0  0  0  0  0  0  0  0  0  0
   -0.3134    0.0000    0.0000 C   0  0  0  0  0  0  0  0  0  0  0  0
    0.5017    0.0000    0.0000 N   0  0  0  0  0  0  0  0  0  0  0  0
    0.8770    0.0000    0.0000 C   0  0  0  0  0  0  0  0  0  0  0  0
    0.8755    0.0000    0.0000 C   0  0  0  0  0  0  0  0  0  0  0  0
    0.2915    0.0000    0.0000 C   0  0  0  0  0  0  0  0  0  0  0  0
    0.5042    0.0000    0.0000 C   0  0  0  0  0  0  0  0  0  0  0  0
    1.3009    0.0000    0.0000 C   0  0  0  0  0  0  0  0  0  0  0  0
    1.8848    0.0000    0.0000 C   0  0  0  0  0  0  0  0  0  0  0  0
    2.6815    0.0000    0.0000 O   0  0  0  0  0  0  0  0  0  0  0  0
    3.2655    0.0000    0.0000 C   0  0  0  0  0  0  0  0  0  0  0  0
    1.6722    0.0000    0.0000 C   0  0  0  0  0  0  0  0  0  0  0  0
   -0.9539    0.0000    0.0000 C   0  0  0  0  0  0  0  0  0  0  0  0
   -1.3781    0.0000    0.0000 O   0  0  0  0  0  0  0  0  0  0  0  0
   -1.7245    0.0000    0.0000 C   0  0  0  0  0  0  0  0  0  0  0  0
   -2.3651    0.0000    0.0000 O   0  0  0  0  0  0  0  0  0  0  0  0
   -2.2351    0.0000    0.0000 C   0  0  0  0  0  0  0  0  0  0  0  0
   -1.4646    0.0000    0.0000 C   0  0  0  0  0  0  0  0  0  0  0  0
   -2.8757    0.0000    0.0000 O   0  0  0  0  0  0  0  0  0  0  0  0
   -0.3307    0.0000    0.0000 C   0  0  0  0  0  0  0  0  0  0  0  0
    0.4491    0.0000    0.0000 O   0  0  0  0  0  0  0  0  0  0  0  0
   -0.4873    0.0000    0.0000 O   0  0  0  0  0  0  0  0  0  0  0  0
    0.1360    0.0000    0.0000 C   0  0  0  0  0  0  0  0  0  0  0  0
  1  2  1  0      
  2  3  1  0      
  3  4  1  0      
  4  5  2  0      
  5  6  1  0      
  6  7  1  0      
  7  8  1  0      
  8  9  1  0      
  9 10  1  0      
 10 11  1  0      
  3 11  1  0      
  7 11  1  0      
 10 12  1  0      
 12 13  1  0      
 13 14  1  0      
 13 15  1  0      
 15 16  2  0      
 10 16  1  0      
 16 17  1  0      
 17 18  2  0      
 18 19  1  0      
 19 20  1  0      
 20 21  1  0      
 19 22  2  0      
 15 22  1  0      
 12 23  1  0      
 23 24  1  0      
 23 25  1  0      
  3 25  1  0      
 25 26  1  0      
 26 27  1  0      
 27 28  1  0      
 27 29  2  0      
 23 30  1  0      
 30 31  2  0      
 30 32  1  0      
 32 33  1  0      
M  END
>  <Bioactivity>
Vindoline is a monomeric vinca-alkaloid,forms lower portion of the lead anti-tumor agents,vinblastine and vincristine. Vindoline exhibits reciprocal cross-resistance to vincristine and vinblastine.

>  <CAS>
2182-14-1

>  <Col>
10

>  <Formula>
C25H32N2O6

>  <ID>
T2773

>  <Index>
189

>  <MOLENAME>
Vindoline

>  <MolWt>
456.54

>  <Pathways>
Others

>  <Plate>
PLATE 003

>  <QR code>
1151477025

>  <Receptor>
Others

>  <Reference>
1. Liu J, et al. World J Microbiol Biotechnol. 2014 Jan;30(1):175-80. 

>  <Row>
C

>  <SMILES>
CCC12C=CCN3CCC4(C13)C(N(C)C1=C4C=CC(OC)=C1)C(O)(C2OC(C)=O)C(=O)OC

>  <Target>
Others

>  <Weight>
9.8mg

$$$$
Lab-1.sdf
  ChemDraw05232018482D

 21 24  0  0  0  0  0  0  0  0999 V2000
    2.6958    0.0000    0.0000 C   0  0  0  0  0  0  0  0  0  0  0  0
    2.1894    0.0000    0.0000 C   0  0  0  0  0  0  0  0  0  0  0  0
    2.4187    0.0000    0.0000 C   0  0  0  0  0  0  0  0  0  0  0  0
    1.7359    0.0000    0.0000 O   0  0  0  0  0  0  0  0  0  0  0  0
    1.0845    0.0000    0.0000 C   0  0  0  0  0  0  0  0  0  0  0  0
    1.3648    0.0000    0.0000 C   0  0  0  0  0  0  0  0  0  0  0  0
    0.8330    0.0000    0.0000 C   0  0  0  0  0  0  0  0  0  0  0  0
    1.1133    0.0000    0.0000 O   0  0  0  0  0  0  0  0  0  0  0  0
    0.0209    0.0000    0.0000 C   0  0  0  0  0  0  0  0  0  0  0  0
   -0.5110    0.0000    0.0000 O   0  0  0  0  0  0  0  0  0  0  0  0
   -0.2595    0.0000    0.0000 C   0  0  0  0  0  0  0  0  0  0  0  0
    0.2724    0.0000    0.0000 C   0  0  0  0  0  0  0  0  0  0  0  0
   -0.0080    0.0000    0.0000 C   0  0  0  0  0  0  0  0  0  0  0  0
   -0.8201    0.0000    0.0000 C   0  0  0  0  0  0  0  0  0  0  0  0
   -1.3519    0.0000    0.0000 C   0  0  0  0  0  0  0  0  0  0  0  0
   -1.0716    0.0000    0.0000 C   0  0  0  0  0  0  0  0  0  0  0  0
   -1.6034    0.0000    0.0000 C   0  0  0  0  0  0  0  0  0  0  0  0
   -2.4155    0.0000    0.0000 C   0  0  0  0  0  0  0  0  0  0  0  0
   -2.6958    0.0000    0.0000 C   0  0  0  0  0  0  0  0  0  0  0  0
   -2.1640    0.0000    0.0000 C   0  0  0  0  0  0  0  0  0  0  0  0
   -2.4443    0.0000    0.0000 C   0  0  0  0  0  0  0  0  0  0  0  0
  1  2  1  0      
  2  3  2  0      
  3  4  1  0      
  4  5  1  0      
  5  6  2  0      
  2  6  1  0      
  6  7  1  0      
  7  8  2  0      
  7  9  1  0      
  9 10  2  0      
  9 11  1  0      
 11 12  2  0      
  5 12  1  0      
 12 13  1  0      
 13 14  2  0      
 14 15  1  0      
 15 16  2  0      
 11 16  1  0      
 16 17  1  0      
 17 18  2  0      
 18 19  1  0      
 19 20  2  0      
 15 20  1  0      
 20 21  1  0      
M  END
>  <Bioactivity>
Tanshinone I is a pigment isolated from the herbal medicine Salvia miltiorrhiza Bunge. Tanshinone I displays cytotoxicity against human macrophages and IFN-g production in KLH-primed lymph node cells.

>  <CAS>
568-73-0

>  <Col>
11

>  <Formula>
C18H12O3

>  <ID>
T2907

>  <Index>
190

>  <MOLENAME>
Tanshinone I

>  <MolWt>
276.29

>  <Pathways>
Metabolism

>  <Plate>
PLATE 003

>  <QR code>
1151477024

>  <Receptor>
PLA2

>  <Reference>
1. Kim SY, et al. PhytOthers Res, 2002, 16(7), 616-620.

>  <Row>
C

>  <SMILES>
CC1=COC2=C1C(=O)C(=O)C1=C2C=CC2=C1C=CC=C2C

>  <Target>
Phospholipase inhibitor

>  <Weight>
10mg

$$$$
Lab-1.sdf
  ChemDraw05232018482D

 14 14  0  0  0  0  0  0  0  0999 V2000
   -0.7144    0.0000    0.0000 C   0  0  0  0  0  0  0  0  0  0  0  0
    0.0000    0.0000    0.0000 O   0  0  0  0  0  0  0  0  0  0  0  0
    0.0000    0.0000    0.0000 C   0  0  0  0  0  0  0  0  0  0  0  0
    0.7144    0.0000    0.0000 C   0  0  0  0  0  0  0  0  0  0  0  0
    1.4289    0.0000    0.0000 O   0  0  0  0  0  0  0  0  0  0  0  0
    0.7144    0.0000    0.0000 C   0  0  0  0  0  0  0  0  0  0  0  0
    0.0000    0.0000    0.0000 C   0  0  0  0  0  0  0  0  0  0  0  0
    0.0000    0.0000    0.0000 C   0  0  0  0  0  0  0  0  0  0  0  0
   -0.7144    0.0000    0.0000 C   0  0  0  0  0  0  0  0  0  0  0  0
   -0.7144    0.0000    0.0000 C   0  0  0  0  0  0  0  0  0  0  0  0
    0.0000    0.0000    0.0000 O   0  0  0  0  0  0  0  0  0  0  0  0
   -1.4289    0.0000    0.0000 O   0  0  0  0  0  0  0  0  0  0  0  0
   -0.7144    0.0000    0.0000 C   0  0  0  0  0  0  0  0  0  0  0  0
   -0.7144    0.0000    0.0000 C   0  0  0  0  0  0  0  0  0  0  0  0
  1  2  1  0      
  2  3  1  0      
  3  4  2  0      
  4  5  1  0      
  4  6  1  0      
  6  7  2  0      
  8  7  1  4      
  8  9  2  0      
  9 10  1  0      
 10 11  1  0      
 10 12  2  0      
  7 13  1  0      
 13 14  2  0      
  3 14  1  0      
M  END
>  <Bioactivity>
3-Hydroxy-4-methoxycinnamic Acid exhibits hypoglycemic properties.

>  <CAS>
537-73-5

>  <Col>
2

>  <Formula>
C10H10O4

>  <ID>
T2889

>  <Index>
191

>  <MOLENAME>
Isoferulic acid

>  <MolWt>
194.18

>  <Pathways>
Others

>  <Plate>
PLATE 003

>  <QR code>
1151477012

>  <Receptor>
Others

>  <Reference>
1. Meeprom A, et al. BMC Complement Altern Med. 2015 Oct 5;15(1):346.

>  <Row>
D

>  <SMILES>
COC1=C(O)C=C(C=CC(O)=O)C=C1

>  <Target>
Others

>  <Weight>
10.3mg

$$$$
Lab-1.sdf
  ChemDraw05232018482D

 29 33  0  0  0  0  0  0  0  0999 V2000
   -2.1434    0.0000    0.0000 C   0  0  0  0  0  0  0  0  0  0  0  0
   -2.1434    0.0000    0.0000 O   0  0  0  0  0  0  0  0  0  0  0  0
   -1.4289    0.0000    0.0000 C   0  0  0  0  0  0  0  0  0  0  0  0
   -1.4289    0.0000    0.0000 C   0  0  0  0  0  0  0  0  0  0  0  0
   -0.7145    0.0000    0.0000 C   0  0  0  0  0  0  0  0  0  0  0  0
    0.0000    0.0000    0.0000 C   0  0  0  0  0  0  0  0  0  0  0  0
    0.0000    0.0000    0.0000 C   0  0  0  0  0  0  0  0  0  0  0  0
    0.7144    0.0000    0.0000 O   0  0  0  0  0  0  0  0  0  0  0  0
    0.7144    0.0000    0.0000 C   0  0  0  0  0  0  0  0  0  0  0  0
   -0.7145    0.0000    0.0000 C   0  0  0  0  0  0  0  0  0  0  0  0
   -0.7145    0.0000    0.0000 O   0  0  0  0  0  0  0  0  0  0  0  0
   -0.7145    0.0000    0.0000 C   0  0  0  0  0  0  0  0  0  0  0  0
   -1.4289    0.0000    0.0000 C   0  0  0  0  0  0  0  0  0  0  0  0
   -1.4289    0.0000    0.0000 C   0  0  0  0  0  0  0  0  0  0  0  0
   -2.2135    0.0000    0.0000 C   0  0  0  0  0  0  0  0  0  0  0  0
   -2.6984    0.0000    0.0000 O   0  0  0  0  0  0  0  0  0  0  0  0
   -2.2135    0.0000    0.0000 C   0  0  0  0  0  0  0  0  0  0  0  0
   -2.4684    0.0000    0.0000 O   0  0  0  0  0  0  0  0  0  0  0  0
   -0.7145    0.0000    0.0000 C   0  0  0  0  0  0  0  0  0  0  0  0
   -0.7145    0.0000    0.0000 O   0  0  0  0  0  0  0  0  0  0  0  0
    0.0000    0.0000    0.0000 C   0  0  0  0  0  0  0  0  0  0  0  0
    0.7144    0.0000    0.0000 C   0  0  0  0  0  0  0  0  0  0  0  0
    1.4289    0.0000    0.0000 C   0  0  0  0  0  0  0  0  0  0  0  0
    1.4289    0.0000    0.0000 C   0  0  0  0  0  0  0  0  0  0  0  0
    2.2135    0.0000    0.0000 O   0  0  0  0  0  0  0  0  0  0  0  0
    2.6984    0.0000    0.0000 C   0  0  0  0  0  0  0  0  0  0  0  0
    2.2135    0.0000    0.0000 O   0  0  0  0  0  0  0  0  0  0  0  0
    0.7144    0.0000    0.0000 C   0  0  0  0  0  0  0  0  0  0  0  0
    0.0000    0.0000    0.0000 C   0  0  0  0  0  0  0  0  0  0  0  0
  1  2  1  0      
  2  3  1  0      
  3  4  2  0      
  4  5  1  0      
  5  6  2  0      
  6  7  1  0      
  7  8  1  0      
  8  9  1  0      
  7 10  2  0      
  3 10  1  0      
 10 11  1  0      
  5 12  1  0      
 12 13  1  0      
 13 14  1  0      
 14 15  1  0      
 15 16  1  0      
 16 17  1  0      
 13 17  1  0      
 17 18  2  0      
 14 19  1  0      
 19 20  1  0      
 19 21  1  0      
 21 22  2  0      
 22 23  1  0      
 23 24  2  0      
 24 25  1  0      
 25 26  1  0      
 26 27  1  0      
 23 27  1  0      
 24 28  1  0      
 28 29  2  0      
 12 29  1  0      
 21 29  1  0      
M  END
>  <Bioactivity>
4'-demethylepipodophyllotoxin is a key intermediate compounds for the preparation of podophyllotoxin-type anti-Y drugs.

>  <CAS>
6559-91-7

>  <Col>
3

>  <Formula>
C21H20O8

>  <ID>
T2937

>  <Index>
192

>  <MOLENAME>
4'-Demethylepipodophyllotoxin

>  <MolWt>
400.38

>  <Pathways>
DNA Damage/DNA Repair

>  <Plate>
PLATE 003

>  <QR code>
1151477013

>  <Receptor>
Topoisomerase II

>  <Reference>
1. Xiao L, et al. Eur J Med Chem. 2014 Jun 10;80:267-77. 

>  <Row>
D

>  <SMILES>
COC1=CC(=CC(OC)=C1O)C1C2C(COC2=O)C(O)C2=CC3=C(OCO3)C=C12

>  <Target>
Topoisomerase inhibitor

>  <Weight>
10.4mg

$$$$
Lab-1.sdf
  ChemDraw05232018482D

 42 48  0  0  0  0  0  0  0  0999 V2000
   -1.9845    0.0000    0.0000 C   0  0  0  0  0  0  0  0  0  0  0  0
   -1.1609    0.0000    0.0000 C   0  0  0  0  0  0  0  0  0  0  0  0
   -0.7905    0.0000    0.0000 N   0  0  0  0  0  0  0  0  0  0  0  0
   -1.2374    0.0000    0.0000 C   0  0  0  0  0  0  0  0  0  0  0  0
   -0.8750    0.0000    0.0000 C   0  0  0  0  0  0  0  0  0  0  0  0
   -0.6416    0.0000    0.0000 C   0  0  0  0  0  0  0  0  0  0  0  0
    0.1630    0.0000    0.0000 C   0  0  0  0  0  0  0  0  0  0  0  0
    0.6881    0.0000    0.0000 C   0  0  0  0  0  0  0  0  0  0  0  0
    1.4926    0.0000    0.0000 O   0  0  0  0  0  0  0  0  0  0  0  0
    1.7365    0.0000    0.0000 C   0  0  0  0  0  0  0  0  0  0  0  0
    0.4774    0.0000    0.0000 C   0  0  0  0  0  0  0  0  0  0  0  0
    1.2606    0.0000    0.0000 C   0  0  0  0  0  0  0  0  0  0  0  0
    1.9884    0.0000    0.0000 C   0  0  0  0  0  0  0  0  0  0  0  0
    2.8073    0.0000    0.0000 C   0  0  0  0  0  0  0  0  0  0  0  0
    2.3781    0.0000    0.0000 C   0  0  0  0  0  0  0  0  0  0  0  0
    2.3057    0.0000    0.0000 O   0  0  0  0  0  0  0  0  0  0  0  0
    2.9813    0.0000    0.0000 C   0  0  0  0  0  0  0  0  0  0  0  0
    1.7327    0.0000    0.0000 C   0  0  0  0  0  0  0  0  0  0  0  0
    2.4896    0.0000    0.0000 O   0  0  0  0  0  0  0  0  0  0  0  0
    1.6488    0.0000    0.0000 C   0  0  0  0  0  0  0  0  0  0  0  0
    1.6501    0.0000    0.0000 O   0  0  0  0  0  0  0  0  0  0  0  0
    2.4627    0.0000    0.0000 C   0  0  0  0  0  0  0  0  0  0  0  0
    3.0820    0.0000    0.0000 C   0  0  0  0  0  0  0  0  0  0  0  0
    3.8814    0.0000    0.0000 O   0  0  0  0  0  0  0  0  0  0  0  0
    4.1045    0.0000    0.0000 C   0  0  0  0  0  0  0  0  0  0  0  0
    0.7412    0.0000    0.0000 C   0  0  0  0  0  0  0  0  0  0  0  0
   -0.2669    0.0000    0.0000 C   0  0  0  0  0  0  0  0  0  0  0  0
   -0.1755    0.0000    0.0000 C   0  0  0  0  0  0  0  0  0  0  0  0
    0.1649    0.0000    0.0000 C   0  0  0  0  0  0  0  0  0  0  0  0
   -1.6481    0.0000    0.0000 O   0  0  0  0  0  0  0  0  0  0  0  0
   -1.7853    0.0000    0.0000 C   0  0  0  0  0  0  0  0  0  0  0  0
   -1.1493    0.0000    0.0000 O   0  0  0  0  0  0  0  0  0  0  0  0
   -2.5583    0.0000    0.0000 C   0  0  0  0  0  0  0  0  0  0  0  0
   -3.1942    0.0000    0.0000 C   0  0  0  0  0  0  0  0  0  0  0  0
   -3.9673    0.0000    0.0000 C   0  0  0  0  0  0  0  0  0  0  0  0
   -4.1045    0.0000    0.0000 C   0  0  0  0  0  0  0  0  0  0  0  0
   -3.4686    0.0000    0.0000 C   0  0  0  0  0  0  0  0  0  0  0  0
   -2.6955    0.0000    0.0000 C   0  0  0  0  0  0  0  0  0  0  0  0
   -2.0597    0.0000    0.0000 N   0  0  0  0  0  0  0  0  0  0  0  0
   -2.1968    0.0000    0.0000 C   0  0  0  0  0  0  0  0  0  0  0  0
   -2.9699    0.0000    0.0000 C   0  0  0  0  0  0  0  0  0  0  0  0
   -1.5609    0.0000    0.0000 O   0  0  0  0  0  0  0  0  0  0  0  0
  1  2  1  0      
  2  3  1  0      
  3  4  1  0      
  4  5  1  0      
  5  6  1  0      
  6  7  1  0      
  7  8  1  0      
  8  9  1  0      
  9 10  1  0      
  8 11  1  0      
 11 12  1  0      
 12 13  1  0      
 13 14  1  0      
 14 15  1  0      
 15 16  1  0      
 16 17  1  0      
 15 18  1  0      
 12 18  1  0      
 18 19  1  0      
 18 20  1  0      
 20 21  1  0      
 20 22  1  0      
 22 23  1  0      
 14 23  1  0      
 23 24  1  0      
 24 25  1  0      
 20 26  1  0      
 26 27  1  0      
 27 28  1  0      
  5 28  1  0      
 11 28  1  0      
 26 29  1  0      
  3 29  1  0      
 11 29  1  0      
  5 30  1  0      
 30 31  1  0      
 31 32  2  0      
 31 33  1  0      
 33 34  2  0      
 34 35  1  0      
 35 36  2  0      
 36 37  1  0      
 37 38  2  0      
 33 38  1  0      
 38 39  1  0      
 39 40  1  0      
 40 41  1  0      
 40 42  2  0      
M  END
>  <Bioactivity>
Lappaconitine, isolated from Aconitum sinomontanum Nakai, was characterized as analgesic principle.

>  <CAS>
32854-75-4

>  <Col>
4

>  <Formula>
C32H44N2O8

>  <ID>
T2806

>  <Index>
193

>  <MOLENAME>
Lappaconitine

>  <MolWt>
584.64

>  <Pathways>
Others

>  <Plate>
PLATE 003

>  <QR code>
1151477014

>  <Receptor>
Others

>  <Reference>
1. Bryzgalov AO, et al. Cardiovasc Hematol Agents Med Chem. 2013 Sep;11(3):211-7.

>  <Row>
D

>  <SMILES>
CCN1CC2(CCC(OC)C34C5CC6C(OC)C5(O)C(O)(CC6OC)C(CC23)C14)OC(=O)C1=CC=CC=C1NC(C)=O

>  <Target>
Others

>  <Weight>
10.3mg

$$$$
Lab-1.sdf
  ChemDraw05232018482D

 33 36  0  0  0  0  0  0  0  0999 V2000
    0.3572    0.0000    0.0000 C   0  0  0  0  0  0  0  0  0  0  0  0
   -0.3572    0.0000    0.0000 C   0  0  0  0  0  0  0  0  0  0  0  0
   -0.3572    0.0000    0.0000 O   0  0  0  0  0  0  0  0  0  0  0  0
   -1.0717    0.0000    0.0000 C   0  0  0  0  0  0  0  0  0  0  0  0
   -1.0717    0.0000    0.0000 O   0  0  0  0  0  0  0  0  0  0  0  0
   -0.3572    0.0000    0.0000 C   0  0  0  0  0  0  0  0  0  0  0  0
   -0.3572    0.0000    0.0000 C   0  0  0  0  0  0  0  0  0  0  0  0
    0.3572    0.0000    0.0000 O   0  0  0  0  0  0  0  0  0  0  0  0
    1.0717    0.0000    0.0000 C   0  0  0  0  0  0  0  0  0  0  0  0
    1.7862    0.0000    0.0000 C   0  0  0  0  0  0  0  0  0  0  0  0
    2.5007    0.0000    0.0000 C   0  0  0  0  0  0  0  0  0  0  0  0
    3.2151    0.0000    0.0000 O   0  0  0  0  0  0  0  0  0  0  0  0
    2.5007    0.0000    0.0000 C   0  0  0  0  0  0  0  0  0  0  0  0
    1.7862    0.0000    0.0000 C   0  0  0  0  0  0  0  0  0  0  0  0
    1.7862    0.0000    0.0000 O   0  0  0  0  0  0  0  0  0  0  0  0
    1.0717    0.0000    0.0000 C   0  0  0  0  0  0  0  0  0  0  0  0
    0.3572    0.0000    0.0000 C   0  0  0  0  0  0  0  0  0  0  0  0
    0.3572    0.0000    0.0000 O   0  0  0  0  0  0  0  0  0  0  0  0
   -1.0717    0.0000    0.0000 C   0  0  0  0  0  0  0  0  0  0  0  0
   -1.7862    0.0000    0.0000 C   0  0  0  0  0  0  0  0  0  0  0  0
   -2.5006    0.0000    0.0000 C   0  0  0  0  0  0  0  0  0  0  0  0
   -3.2151    0.0000    0.0000 O   0  0  0  0  0  0  0  0  0  0  0  0
   -2.5006    0.0000    0.0000 C   0  0  0  0  0  0  0  0  0  0  0  0
   -3.2151    0.0000    0.0000 O   0  0  0  0  0  0  0  0  0  0  0  0
   -1.7862    0.0000    0.0000 C   0  0  0  0  0  0  0  0  0  0  0  0
   -1.7862    0.0000    0.0000 O   0  0  0  0  0  0  0  0  0  0  0  0
   -1.0717    0.0000    0.0000 C   0  0  0  0  0  0  0  0  0  0  0  0
   -1.7862    0.0000    0.0000 C   0  0  0  0  0  0  0  0  0  0  0  0
   -2.5006    0.0000    0.0000 O   0  0  0  0  0  0  0  0  0  0  0  0
   -1.7862    0.0000    0.0000 C   0  0  0  0  0  0  0  0  0  0  0  0
   -2.5006    0.0000    0.0000 O   0  0  0  0  0  0  0  0  0  0  0  0
   -1.0717    0.0000    0.0000 C   0  0  0  0  0  0  0  0  0  0  0  0
   -1.0717    0.0000    0.0000 O   0  0  0  0  0  0  0  0  0  0  0  0
  1  2  1  0      
  2  3  1  0      
  3  4  1  0      
  4  5  1  0      
  5  6  1  0      
  6  7  2  0      
  7  8  1  0      
  8  9  1  0      
  9 10  2  0      
 10 11  1  0      
 11 12  1  0      
 11 13  2  0      
 13 14  1  0      
 14 15  1  0      
 14 16  2  0      
  9 16  1  0      
 16 17  1  0      
  6 17  1  0      
 17 18  2  0      
  7 19  1  0      
 19 20  2  0      
 20 21  1  0      
 21 22  1  0      
 21 23  2  0      
 23 24  1  0      
 23 25  1  0      
 25 26  1  0      
 25 27  2  0      
 19 27  1  0      
  4 28  1  0      
 28 29  1  0      
 28 30  1  0      
 30 31  1  0      
 30 32  1  0      
  2 32  1  0      
 32 33  1  0      
M  END
>  <Bioactivity>
Myricitrin, a flavonoid compound isolated from the root bark of Myrica cerifera, which exerts antinociceptive effects.

>  <CAS>
17912-87-7

>  <Col>
5

>  <Formula>
C21H20O12

>  <ID>
T2757

>  <Index>
194

>  <MOLENAME>
Myricetrin

>  <MolWt>
464.38

>  <Pathways>
Immunology/Inflammation

>  <Plate>
PLATE 003

>  <QR code>
1151477015

>  <Receptor>
PKC¦Á; PKC¦Å 

>  <Reference>
1. Meotti FC, et al. J Pharmacol Exp Ther, 2006, 316(2), 789-796.

>  <Row>
D

>  <SMILES>
CC1OC(OC2=C(OC3=CC(O)=CC(O)=C3C2=O)C2=CC(O)=C(O)C(O)=C2)C(O)C(O)C1O

>  <Target>
PKC inhibitor

>  <Weight>
10.3mg

$$$$
Lab-1.sdf
  ChemDraw05232018482D

 19 22  0  0  0  0  0  0  0  0999 V2000
   -2.1434    0.0000    0.0000 O   0  5  0  0  0  0  0  0  0  0  0  0
   -1.4290    0.0000    0.0000 N   0  3  0  0  0  0  0  0  0  0  0  0
   -2.1434    0.0000    0.0000 C   0  0  0  0  0  0  0  0  0  0  0  0
   -2.1434    0.0000    0.0000 C   0  0  0  0  0  0  0  0  0  0  0  0
   -1.4290    0.0000    0.0000 C   0  0  0  0  0  0  0  0  0  0  0  0
   -0.7145    0.0000    0.0000 C   0  0  0  0  0  0  0  0  0  0  0  0
   -0.0000    0.0000    0.0000 C   0  0  0  0  0  0  0  0  0  0  0  0
    0.7145    0.0000    0.0000 N   0  0  0  0  0  0  0  0  0  0  0  0
    0.7145    0.0000    0.0000 C   0  0  0  0  0  0  0  0  0  0  0  0
    1.4289    0.0000    0.0000 C   0  0  0  0  0  0  0  0  0  0  0  0
    2.1434    0.0000    0.0000 C   0  0  0  0  0  0  0  0  0  0  0  0
    2.1434    0.0000    0.0000 C   0  0  0  0  0  0  0  0  0  0  0  0
    1.4289    0.0000    0.0000 C   0  0  0  0  0  0  0  0  0  0  0  0
    1.4289    0.0000    0.0000 O   0  0  0  0  0  0  0  0  0  0  0  0
   -0.0000    0.0000    0.0000 C   0  0  0  0  0  0  0  0  0  0  0  0
   -0.0000    0.0000    0.0000 C   0  0  0  0  0  0  0  0  0  0  0  0
   -0.7145    0.0000    0.0000 C   0  0  0  0  0  0  0  0  0  0  0  0
   -1.4290    0.0000    0.0000 C   0  0  0  0  0  0  0  0  0  0  0  0
   -0.7145    0.0000    0.0000 C   0  0  0  0  0  0  0  0  0  0  0  0
  1  2  1  0      
  2  3  1  0      
  3  4  1  0      
  4  5  1  0      
  5  6  1  0      
  6  7  1  0      
  7  8  1  0      
  8  9  1  0      
  9 10  1  0      
 10 11  1  0      
 11 12  2  0      
 12 13  1  0      
  8 13  1  0      
 13 14  2  0      
  9 15  1  0      
 15 16  1  0      
 16 17  1  0      
 17 18  1  0      
  2 18  1  0      
 15 19  1  0      
  2 19  1  0      
  6 19  1  0      
M  CHG  2   1  -1   2   1
M  END
>  <Bioactivity>
Extracted from Sophra¡¡flavescens¡¡Ait;Suitability:Water,methanol,ethanol,chloroform,benzene;Store the product in sealed,cool and dry condition

>  <CAS>
26904-64-3

>  <Col>
6

>  <Formula>
C15H22N2O2

>  <ID>
T2786

>  <Index>
195

>  <MOLENAME>
Oxysophocarpine

>  <MolWt>
262.35

>  <Pathways>
Immunology/Inflammation

>  <Plate>
PLATE 003

>  <QR code>
1151477016

>  <Receptor>
PGE2

>  <Reference>
1. Yang Y, et al. Planta Med. 2015 Jul;81(10):791-7.

>  <Row>
D

>  <SMILES>
[O-][N+]12CCCC3CN4C(CC=CC4=O)C(CCC1)C23

>  <Target>
Others

>  <Weight>
10.4mg

$$$$
Lab-1.sdf
  ChemDraw05232018482D

 24 27  0  0  0  0  0  0  0  0999 V2000
    1.2102    0.0000    0.0000 C   0  0  0  0  0  0  0  0  0  0  0  0
    1.2916    0.0000    0.0000 O   0  0  0  0  0  0  0  0  0  0  0  0
    0.6213    0.0000    0.0000 C   0  0  0  0  0  0  0  0  0  0  0  0
   -0.1246    0.0000    0.0000 C   0  0  0  0  0  0  0  0  0  0  0  0
   -0.8006    0.0000    0.0000 C   0  0  0  0  0  0  0  0  0  0  0  0
   -1.4176    0.0000    0.0000 C   0  0  0  0  0  0  0  0  0  0  0  0
   -0.5936    0.0000    0.0000 C   0  0  0  0  0  0  0  0  0  0  0  0
   -0.0394    0.0000    0.0000 C   0  0  0  0  0  0  0  0  0  0  0  0
   -0.0798    0.0000    0.0000 C   0  0  0  0  0  0  0  0  0  0  0  0
    0.6136    0.0000    0.0000 C   0  0  0  0  0  0  0  0  0  0  0  0
    0.5733    0.0000    0.0000 O   0  0  0  0  0  0  0  0  0  0  0  0
    1.3474    0.0000    0.0000 C   0  0  0  0  0  0  0  0  0  0  0  0
    2.0408    0.0000    0.0000 O   0  0  0  0  0  0  0  0  0  0  0  0
    2.7746    0.0000    0.0000 C   0  0  0  0  0  0  0  0  0  0  0  0
    1.3877    0.0000    0.0000 C   0  0  0  0  0  0  0  0  0  0  0  0
    0.6942    0.0000    0.0000 C   0  0  0  0  0  0  0  0  0  0  0  0
   -0.7192    0.0000    0.0000 C   0  0  0  0  0  0  0  0  0  0  0  0
   -1.5150    0.0000    0.0000 C   0  0  0  0  0  0  0  0  0  0  0  0
   -2.0691    0.0000    0.0000 C   0  0  0  0  0  0  0  0  0  0  0  0
   -2.0288    0.0000    0.0000 N   0  0  0  0  0  0  0  0  0  0  0  0
   -2.7746    0.0000    0.0000 C   0  0  0  0  0  0  0  0  0  0  0  0
    0.0324    0.0000    0.0000 C   0  0  0  0  0  0  0  0  0  0  0  0
    0.7027    0.0000    0.0000 C   0  0  0  0  0  0  0  0  0  0  0  0
    1.4544    0.0000    0.0000 O   0  0  0  0  0  0  0  0  0  0  0  0
  1  2  1  0      
  2  3  1  0      
  3  4  2  0      
  4  5  1  0      
  5  6  1  0      
  6  7  1  0      
  7  8  1  0      
  8  9  2  0      
  9 10  1  0      
 10 11  1  0      
 10 12  2  0      
 12 13  1  0      
 13 14  1  0      
 12 15  1  0      
 15 16  2  0      
  8 16  1  0      
  9 17  1  0      
  5 17  1  0      
 17 18  1  0      
 18 19  1  0      
 19 20  1  0      
  6 20  1  0      
 20 21  1  0      
 17 22  1  0      
 22 23  1  0      
  3 23  1  0      
 23 24  2  0      
M  END
>  <Bioactivity>
Sinomenine, a pure alkaloid extracted from the chinese medical plant Sinomenium acutum, is used for the treatment of rheumatism and arthritis.

>  <CAS>
115-53-7

>  <Col>
7

>  <Formula>
C19H23NO4

>  <ID>
T2726

>  <Index>
196

>  <MOLENAME>
Sinomenine

>  <MolWt>
329.4

>  <Pathways>
Others

>  <Plate>
PLATE 003

>  <QR code>
1151477017

>  <Receptor>
Others

>  <Reference>
1. Liu L, et al. Int J Immunopharmacol, 1996, 18(10), 529-543.

>  <Row>
D

>  <SMILES>
COC1=CC2C3CC4=C(C(O)=C(OC)C=C4)C2(CCN3C)CC1=O

>  <Target>
Others

>  <Weight>
10.1mg

$$$$
Lab-1.sdf
  ChemDraw05232018482D

 49 48  0  0  0  0  0  0  0  0999 V2000
   -5.4235    0.0000    0.0000 O   0  0  0  0  0  0  0  0  0  0  0  0
   -3.0663    0.0000    0.0000 O   0  0  0  0  0  0  0  0  0  0  0  0
   -0.7091    0.0000    0.0000 O   0  0  0  0  0  0  0  0  0  0  0  0
   -5.4235    0.0000    0.0000 O   0  0  0  0  0  0  0  0  0  0  0  0
    3.2054    0.0000    0.0000 O   0  0  0  0  0  0  0  0  0  0  0  0
    2.8699    0.0000    0.0000 C   0  0  0  0  0  0  0  0  0  0  0  0
    3.3548    0.0000    0.0000 C   0  0  0  0  0  0  0  0  0  0  0  0
    3.0999    0.0000    0.0000 O   0  0  0  0  0  0  0  0  0  0  0  0
    3.7673    0.0000    0.0000 C   0  0  0  0  0  0  0  0  0  0  0  0
    3.2153    0.0000    0.0000 C   0  0  0  0  0  0  0  0  0  0  0  0
    2.4083    0.0000    0.0000 O   0  0  0  0  0  0  0  0  0  0  0  0
    4.3193    0.0000    0.0000 O   0  0  0  0  0  0  0  0  0  0  0  0
    4.0644    0.0000    0.0000 C   0  0  0  0  0  0  0  0  0  0  0  0
    3.2574    0.0000    0.0000 O   0  0  0  0  0  0  0  0  0  0  0  0
    3.0025    0.0000    0.0000 C   0  0  0  0  0  0  0  0  0  0  0  0
    2.1955    0.0000    0.0000 C   0  0  0  0  0  0  0  0  0  0  0  0
    1.6435    0.0000    0.0000 O   0  0  0  0  0  0  0  0  0  0  0  0
    0.8365    0.0000    0.0000 C   0  0  0  0  0  0  0  0  0  0  0  0
    0.2845    0.0000    0.0000 O   0  0  0  0  0  0  0  0  0  0  0  0
   -0.5226    0.0000    0.0000 C   0  0  0  0  0  0  0  0  0  0  0  0
   -1.0746    0.0000    0.0000 C   0  0  0  0  0  0  0  0  0  0  0  0
   -0.8197    0.0000    0.0000 O   0  0  0  0  0  0  0  0  0  0  0  0
   -1.3717    0.0000    0.0000 C   0  0  0  0  0  0  0  0  0  0  0  0
   -1.1168    0.0000    0.0000 O   0  0  0  0  0  0  0  0  0  0  0  0
   -1.6688    0.0000    0.0000 C   0  0  0  0  0  0  0  0  0  0  0  0
   -1.4139    0.0000    0.0000 C   0  0  0  0  0  0  0  0  0  0  0  0
   -1.9659    0.0000    0.0000 O   0  0  0  0  0  0  0  0  0  0  0  0
   -2.4758    0.0000    0.0000 C   0  0  0  0  0  0  0  0  0  0  0  0
   -3.0278    0.0000    0.0000 O   0  0  0  0  0  0  0  0  0  0  0  0
   -2.7307    0.0000    0.0000 C   0  0  0  0  0  0  0  0  0  0  0  0
   -3.5377    0.0000    0.0000 O   0  0  0  0  0  0  0  0  0  0  0  0
   -2.1787    0.0000    0.0000 C   0  0  0  0  0  0  0  0  0  0  0  0
   -2.4336    0.0000    0.0000 O   0  0  0  0  0  0  0  0  0  0  0  0
   -0.7775    0.0000    0.0000 C   0  0  0  0  0  0  0  0  0  0  0  0
   -1.5845    0.0000    0.0000 O   0  0  0  0  0  0  0  0  0  0  0  0
   -0.2255    0.0000    0.0000 C   0  0  0  0  0  0  0  0  0  0  0  0
   -0.4804    0.0000    0.0000 O   0  0  0  0  0  0  0  0  0  0  0  0
    0.5816    0.0000    0.0000 C   0  0  0  0  0  0  0  0  0  0  0  0
    1.1336    0.0000    0.0000 O   0  0  0  0  0  0  0  0  0  0  0  0
    3.5545    0.0000    0.0000 C   0  0  0  0  0  0  0  0  0  0  0  0
    3.2996    0.0000    0.0000 O   0  0  0  0  0  0  0  0  0  0  0  0
    4.3615    0.0000    0.0000 C   0  0  0  0  0  0  0  0  0  0  0  0
    4.9136    0.0000    0.0000 O   0  0  0  0  0  0  0  0  0  0  0  0
    4.6164    0.0000    0.0000 C   0  0  0  0  0  0  0  0  0  0  0  0
    5.4235    0.0000    0.0000 O   0  0  0  0  0  0  0  0  0  0  0  0
    4.4348    0.0000    0.0000 C   0  0  0  0  0  0  0  0  0  0  0  0
    5.2195    0.0000    0.0000 O   0  0  0  0  0  0  0  0  0  0  0  0
    4.1798    0.0000    0.0000 C   0  0  0  0  0  0  0  0  0  0  0  0
    4.6647    0.0000    0.0000 O   0  0  0  0  0  0  0  0  0  0  0  0
  5  6  1  0      
  6  7  1  0      
  7  8  1  0      
  8  9  1  0      
  9 10  1  0      
 10 11  1  0      
  9 12  1  0      
 12 13  1  0      
 13 14  1  0      
 14 15  1  0      
 15 16  1  0      
 16 17  1  0      
 17 18  1  0      
 18 19  1  0      
 19 20  1  0      
 20 21  1  0      
 21 22  1  0      
 22 23  1  0      
 23 24  1  0      
 24 25  1  0      
 25 26  1  0      
 26 27  1  0      
 25 28  1  0      
 28 29  1  0      
 28 30  1  0      
 30 31  1  0      
 30 32  1  0      
 23 32  1  0      
 32 33  1  0      
 20 34  1  0      
 34 35  1  0      
 34 36  1  0      
 36 37  1  0      
 36 38  1  0      
 18 38  1  0      
 38 39  1  0      
 15 40  1  0      
 40 41  1  0      
 40 42  1  0      
 42 43  1  0      
 42 44  1  0      
 13 44  1  0      
 44 45  1  0      
  9 46  1  0      
 46 47  1  0      
 46 48  1  0      
  7 48  1  0      
 48 49  1  0      
M  END
>  <Bioactivity>
Stachyose is a tetrasaccharide consisting of two ¦Á-D-galactose units, one ¦Á-D-glucose unit, and one ¦Â-D-fructose unit sequentially linked as gal(¦Á1¡ú6)gal(¦Á1¡ú6)glc(¦Á1?2¦Â)fru.

>  <CAS>
10094-58-3

>  <Col>
8

>  <Formula>
C24H50O25

>  <ID>
T2713

>  <Index>
197

>  <MOLENAME>
D-Stachyose tetrahydrate

>  <MolWt>
738.64

>  <Pathways>
Others

>  <Plate>
PLATE 003

>  <QR code>
1151477018

>  <Receptor>
Others

>  <Reference>
1. Li W, et al. Mol Nutr Food Res. 2015 Nov 19. 

>  <Row>
D

>  <SMILES>
O.O.O.O.OCC1OC(CO)(OC2OC(COC3OC(COC4OC(CO)C(O)C(O)C4O)C(O)C(O)C3O)C(O)C(O)C2O)C(O)C1O

>  <Target>
Others

>  <Weight>
10.4mg

$$$$
Lab-1.sdf
  ChemDraw05232018482D

 43 46  0  0  0  0  0  0  0  0999 V2000
    2.5006    0.0000    0.0000 C   0  0  0  0  0  0  0  0  0  0  0  0
    3.2151    0.0000    0.0000 O   0  0  0  0  0  0  0  0  0  0  0  0
    3.2151    0.0000    0.0000 C   0  0  0  0  0  0  0  0  0  0  0  0
    3.9296    0.0000    0.0000 C   0  0  0  0  0  0  0  0  0  0  0  0
    4.6440    0.0000    0.0000 O   0  0  0  0  0  0  0  0  0  0  0  0
    3.9296    0.0000    0.0000 C   0  0  0  0  0  0  0  0  0  0  0  0
    3.2151    0.0000    0.0000 C   0  0  0  0  0  0  0  0  0  0  0  0
    3.2151    0.0000    0.0000 C   0  0  0  0  0  0  0  0  0  0  0  0
    2.5006    0.0000    0.0000 C   0  0  0  0  0  0  0  0  0  0  0  0
    2.5006    0.0000    0.0000 C   0  0  0  0  0  0  0  0  0  0  0  0
    3.2151    0.0000    0.0000 O   0  0  0  0  0  0  0  0  0  0  0  0
    1.7861    0.0000    0.0000 C   0  0  0  0  0  0  0  0  0  0  0  0
    1.7861    0.0000    0.0000 C   0  0  0  0  0  0  0  0  0  0  0  0
    2.5006    0.0000    0.0000 O   0  0  0  0  0  0  0  0  0  0  0  0
    1.0717    0.0000    0.0000 C   0  0  0  0  0  0  0  0  0  0  0  0
    0.3573    0.0000    0.0000 C   0  0  0  0  0  0  0  0  0  0  0  0
   -0.3573    0.0000    0.0000 O   0  0  0  0  0  0  0  0  0  0  0  0
   -0.3573    0.0000    0.0000 C   0  0  0  0  0  0  0  0  0  0  0  0
    0.3573    0.0000    0.0000 O   0  0  0  0  0  0  0  0  0  0  0  0
    0.3573    0.0000    0.0000 C   0  0  0  0  0  0  0  0  0  0  0  0
    1.0717    0.0000    0.0000 C   0  0  0  0  0  0  0  0  0  0  0  0
    1.0717    0.0000    0.0000 O   0  0  0  0  0  0  0  0  0  0  0  0
   -0.3573    0.0000    0.0000 C   0  0  0  0  0  0  0  0  0  0  0  0
   -0.3573    0.0000    0.0000 O   0  0  0  0  0  0  0  0  0  0  0  0
   -1.0716    0.0000    0.0000 C   0  0  0  0  0  0  0  0  0  0  0  0
   -1.7861    0.0000    0.0000 O   0  0  0  0  0  0  0  0  0  0  0  0
   -1.0716    0.0000    0.0000 C   0  0  0  0  0  0  0  0  0  0  0  0
   -1.7861    0.0000    0.0000 O   0  0  0  0  0  0  0  0  0  0  0  0
   -2.5006    0.0000    0.0000 C   0  0  0  0  0  0  0  0  0  0  0  0
   -2.5006    0.0000    0.0000 O   0  0  0  0  0  0  0  0  0  0  0  0
   -3.2151    0.0000    0.0000 C   0  0  0  0  0  0  0  0  0  0  0  0
   -3.2151    0.0000    0.0000 C   0  0  0  0  0  0  0  0  0  0  0  0
   -3.9295    0.0000    0.0000 C   0  0  0  0  0  0  0  0  0  0  0  0
   -4.6440    0.0000    0.0000 O   0  0  0  0  0  0  0  0  0  0  0  0
   -3.9295    0.0000    0.0000 C   0  0  0  0  0  0  0  0  0  0  0  0
   -4.6440    0.0000    0.0000 O   0  0  0  0  0  0  0  0  0  0  0  0
   -3.2151    0.0000    0.0000 C   0  0  0  0  0  0  0  0  0  0  0  0
   -3.2151    0.0000    0.0000 O   0  0  0  0  0  0  0  0  0  0  0  0
    0.3573    0.0000    0.0000 C   0  0  0  0  0  0  0  0  0  0  0  0
    1.0717    0.0000    0.0000 C   0  0  0  0  0  0  0  0  0  0  0  0
    1.0717    0.0000    0.0000 O   0  0  0  0  0  0  0  0  0  0  0  0
    2.5006    0.0000    0.0000 C   0  0  0  0  0  0  0  0  0  0  0  0
    2.5006    0.0000    0.0000 C   0  0  0  0  0  0  0  0  0  0  0  0
  1  2  1  0      
  2  3  1  0      
  3  4  2  0      
  4  5  1  0      
  4  6  1  0      
  6  7  2  0      
  7  8  1  0      
  8  9  1  0      
  9 10  1  0      
 10 11  2  0      
 10 12  1  0      
 12 13  2  0      
 13 14  1  0      
 13 15  1  0      
 15 16  2  0      
 16 17  1  0      
 17 18  1  0      
 18 19  1  0      
 19 20  1  0      
 20 21  1  0      
 21 22  1  0      
 20 23  1  0      
 23 24  1  0      
 23 25  1  0      
 25 26  1  0      
 25 27  1  0      
 18 27  1  0      
 27 28  1  0      
 28 29  1  0      
 29 30  1  0      
 30 31  1  0      
 31 32  1  0      
 31 33  1  0      
 33 34  1  0      
 33 35  1  0      
 35 36  1  0      
 35 37  1  0      
 29 37  1  0      
 37 38  1  0      
 16 39  1  0      
 39 40  2  0      
 12 40  1  0      
 40 41  1  0      
  7 42  1  0      
 42 43  2  0      
  3 43  1  0      
M  END
>  <Bioactivity>
Neohesperidin dihydrochalcone(Nhdc), sometimes abbreviated to neohesperidin DC or simply NHDC, is an artificial sweetener derived from citrus.

>  <CAS>
20702-77-6

>  <Col>
9

>  <Formula>
C28H36O15

>  <ID>
T2767

>  <Index>
198

>  <MOLENAME>
Neohesperidin Dihydrochalcone (Nhdc)

>  <MolWt>
612.58

>  <Pathways>
Others

>  <Plate>
PLATE 003

>  <QR code>
1151477019

>  <Receptor>
Others

>  <Reference>
1. Kroeze JH, Chem Senses, 2000, 25(5), 555-559.

>  <Row>
D

>  <SMILES>
COC1=C(O)C=C(CCC(=O)C2=C(O)C=C(OC3OC(CO)C(O)C(O)C3OC3OC(C)C(O)C(O)C3O)C=C2O)C=C1

>  <Target>
Others

>  <Weight>
10.3mg

$$$$
Lab-1.sdf
  ChemDraw05232018482D

 43 44  0  0  0  0  0  0  0  0999 V2000
    0.4879    0.0000    0.0000 Cl  0  0  0  0  0  0  0  0  0  0  0  0
    2.4915    0.0000    0.0000 Cl  0  0  0  0  0  0  0  0  0  0  0  0
   -2.8579    0.0000    0.0000 C   0  0  0  0  0  0  0  0  0  0  0  0
   -2.8579    0.0000    0.0000 C   0  0  0  0  0  0  0  0  0  0  0  0
   -2.1433    0.0000    0.0000 O   0  0  0  0  0  0  0  0  0  0  0  0
   -2.1433    0.0000    0.0000 C   0  0  0  0  0  0  0  0  0  0  0  0
   -1.4290    0.0000    0.0000 O   0  0  0  0  0  0  0  0  0  0  0  0
   -0.7145    0.0000    0.0000 C   0  0  0  0  0  0  0  0  0  0  0  0
   -0.7145    0.0000    0.0000 C   0  0  0  0  0  0  0  0  0  0  0  0
   -1.4290    0.0000    0.0000 O   0  0  0  0  0  0  0  0  0  0  0  0
    0.0000    0.0000    0.0000 C   0  0  0  0  0  0  0  0  0  0  0  0
    0.0000    0.0000    0.0000 O   0  0  0  0  0  0  0  0  0  0  0  0
    0.7145    0.0000    0.0000 C   0  0  0  0  0  0  0  0  0  0  0  0
    1.4289    0.0000    0.0000 C   0  0  0  0  0  0  0  0  0  0  0  0
    2.1434    0.0000    0.0000 O   0  0  0  0  0  0  0  0  0  0  0  0
    0.7145    0.0000    0.0000 O   0  0  0  0  0  0  0  0  0  0  0  0
    0.0000    0.0000    0.0000 C   0  0  0  0  0  0  0  0  0  0  0  0
    0.0000    0.0000    0.0000 O   0  0  0  0  0  0  0  0  0  0  0  0
    0.7145    0.0000    0.0000 C   0  0  0  0  0  0  0  0  0  0  0  0
    1.4289    0.0000    0.0000 C   0  0  0  0  0  0  0  0  0  0  0  0
    2.1434    0.0000    0.0000 C   0  0  0  0  0  0  0  0  0  0  0  0
    2.8579    0.0000    0.0000 O   0  0  0  0  0  0  0  0  0  0  0  0
    2.1434    0.0000    0.0000 C   0  0  0  0  0  0  0  0  0  0  0  0
    2.8579    0.0000    0.0000 C   0  0  0  0  0  0  0  0  0  0  0  0
    3.5723    0.0000    0.0000 O   0  0  0  0  0  0  0  0  0  0  0  0
    2.8579    0.0000    0.0000 C   0  0  0  0  0  0  0  0  0  0  0  0
    3.5723    0.0000    0.0000 C   0  0  0  0  0  0  0  0  0  0  0  0
    3.5723    0.0000    0.0000 C   0  0  0  0  0  0  0  0  0  0  0  0
    4.2868    0.0000    0.0000 C   0  0  0  0  0  0  0  0  0  0  0  0
    4.2868    0.0000    0.0000 C   0  0  0  0  0  0  0  0  0  0  0  0
    3.5723    0.0000    0.0000 C   0  0  0  0  0  0  0  0  0  0  0  0
    3.5723    0.0000    0.0000 O   0  0  0  0  0  0  0  0  0  0  0  0
    2.8579    0.0000    0.0000 C   0  0  0  0  0  0  0  0  0  0  0  0
    2.8579    0.0000    0.0000 C   0  0  0  0  0  0  0  0  0  0  0  0
    1.4289    0.0000    0.0000 C   0  0  0  0  0  0  0  0  0  0  0  0
    1.4289    0.0000    0.0000 O   0  0  0  0  0  0  0  0  0  0  0  0
    0.7145    0.0000    0.0000 C   0  0  0  0  0  0  0  0  0  0  0  0
   -2.8579    0.0000    0.0000 C   0  0  0  0  0  0  0  0  0  0  0  0
   -2.8579    0.0000    0.0000 O   0  0  0  0  0  0  0  0  0  0  0  0
   -3.5723    0.0000    0.0000 C   0  0  0  0  0  0  0  0  0  0  0  0
   -4.2868    0.0000    0.0000 O   0  0  0  0  0  0  0  0  0  0  0  0
   -3.5723    0.0000    0.0000 C   0  0  0  0  0  0  0  0  0  0  0  0
   -4.2868    0.0000    0.0000 O   0  0  0  0  0  0  0  0  0  0  0  0
  3  4  1  0      
  4  5  1  0      
  5  6  1  0      
  6  7  1  0      
  7  8  1  0      
  8  9  1  0      
  9 10  1  0      
  9 11  1  0      
 11 12  1  0      
 11 13  1  0      
 13 14  1  0      
 14 15  1  0      
 13 16  1  0      
 16 17  1  0      
  8 17  1  0      
 17 18  1  0      
 18 19  1  0      
 19 20  2  0      
 20 21  1  0      
 21 22  1  0      
 21 23  2  0      
 23 24  1  0      
 24 25  2  0      
 24 26  1  0      
 26 27  1  0      
 27 28  1  0      
 28 29  2  0      
 29 30  1  0      
 30 31  2  0      
 31 32  1  0      
 31 33  1  0      
 33 34  2  0      
 28 34  1  0      
 23 35  1  0      
 35 36  1  0      
 35 37  2  0      
 19 37  1  0      
  6 38  1  0      
 38 39  1  0      
 38 40  1  0      
 40 41  1  0      
 40 42  1  0      
  4 42  1  0      
 42 43  1  0      
M  END
>  <Bioactivity>
Naringin Dihydrochalcone(Naringin DC) is a new-style sweetening agent and an artificial sweetener derived from naringin.

>  <CAS>
18916-17-1

>  <Col>
10

>  <Formula>
C27H34O14

>  <ID>
T2761

>  <Index>
199

>  <MOLENAME>
Naringin dihydrochalcone

>  <MolWt>
582.55

>  <Pathways>
Others

>  <Plate>
PLATE 003

>  <QR code>
1151477020

>  <Receptor>
Others

>  <Reference>
1. Shin W, et al. J Med Chem, 1995, 38(21), 4325-4331.

>  <Row>
D

>  <SMILES>
Cl.Cl.CC1OC(OC2C(O)C(O)C(CO)OC2OC2=CC(O)=C(C(=O)CCC3=CC=C(O)C=C3)C(O)=C2)C(O)C(O)C1O

>  <Target>
Others

>  <Weight>
10.3mg

$$$$
Lab-1.sdf
  ChemDraw05232018482D

 28 30  0  0  0  0  0  0  0  0999 V2000
   -3.2151    0.0000    0.0000 O   0  0  0  0  0  0  0  0  0  0  0  0
   -2.5006    0.0000    0.0000 C   0  0  0  0  0  0  0  0  0  0  0  0
   -2.5006    0.0000    0.0000 C   0  0  0  0  0  0  0  0  0  0  0  0
   -1.7861    0.0000    0.0000 O   0  0  0  0  0  0  0  0  0  0  0  0
   -1.7861    0.0000    0.0000 C   0  0  0  0  0  0  0  0  0  0  0  0
   -1.0717    0.0000    0.0000 O   0  0  0  0  0  0  0  0  0  0  0  0
   -1.0717    0.0000    0.0000 C   0  0  0  0  0  0  0  0  0  0  0  0
   -0.3572    0.0000    0.0000 C   0  0  0  0  0  0  0  0  0  0  0  0
   -0.3572    0.0000    0.0000 C   0  0  0  0  0  0  0  0  0  0  0  0
    0.3572    0.0000    0.0000 C   0  0  0  0  0  0  0  0  0  0  0  0
    1.0717    0.0000    0.0000 C   0  0  0  0  0  0  0  0  0  0  0  0
    1.7861    0.0000    0.0000 C   0  0  0  0  0  0  0  0  0  0  0  0
    2.5006    0.0000    0.0000 C   0  0  0  0  0  0  0  0  0  0  0  0
    3.2151    0.0000    0.0000 C   0  0  0  0  0  0  0  0  0  0  0  0
    3.2151    0.0000    0.0000 C   0  0  0  0  0  0  0  0  0  0  0  0
    3.9295    0.0000    0.0000 O   0  0  0  0  0  0  0  0  0  0  0  0
    2.5006    0.0000    0.0000 C   0  0  0  0  0  0  0  0  0  0  0  0
    1.7861    0.0000    0.0000 C   0  0  0  0  0  0  0  0  0  0  0  0
   -1.0717    0.0000    0.0000 C   0  0  0  0  0  0  0  0  0  0  0  0
   -1.7861    0.0000    0.0000 C   0  0  0  0  0  0  0  0  0  0  0  0
   -2.5006    0.0000    0.0000 O   0  0  0  0  0  0  0  0  0  0  0  0
   -1.7861    0.0000    0.0000 C   0  0  0  0  0  0  0  0  0  0  0  0
   -2.5006    0.0000    0.0000 C   0  0  0  0  0  0  0  0  0  0  0  0
   -2.5006    0.0000    0.0000 O   0  0  0  0  0  0  0  0  0  0  0  0
   -3.2151    0.0000    0.0000 C   0  0  0  0  0  0  0  0  0  0  0  0
   -3.9295    0.0000    0.0000 O   0  0  0  0  0  0  0  0  0  0  0  0
   -3.2151    0.0000    0.0000 C   0  0  0  0  0  0  0  0  0  0  0  0
   -3.9295    0.0000    0.0000 O   0  0  0  0  0  0  0  0  0  0  0  0
  1  2  1  0      
  2  3  1  0      
  3  4  1  0      
  4  5  1  0      
  5  6  1  0      
  6  7  1  0      
  7  8  2  0      
  8  9  1  0      
 10  9  1  4      
 10 11  2  0      
 11 12  1  0      
 12 13  2  0      
 13 14  1  0      
 14 15  2  0      
 15 16  1  0      
 15 17  1  0      
 17 18  2  0      
 12 18  1  0      
  9 19  2  0      
 19 20  1  0      
 20 21  1  0      
 20 22  2  0      
  7 22  1  0      
  5 23  1  0      
 23 24  1  0      
 23 25  1  0      
 25 26  1  0      
 25 27  1  0      
  3 27  1  0      
 27 28  1  0      
M  END
>  <Bioactivity>
Polydatin is a crystal component extracted from the root stem of perennial herbage Polygonum Cuspidatum Sieb.et Zucc. Extracted from Polygonum cuspidatum;Suitability:Methanol,ethanol,acetone;Store the
 product in sealed,cool and dry condition

>  <CAS>
65914-17-2

>  <Col>
11

>  <Formula>
C20H22O8

>  <ID>
T2938

>  <Index>
200

>  <MOLENAME>
Piceid

>  <MolWt>
390.39

>  <Pathways>
Metabolism

>  <Plate>
PLATE 003

>  <QR code>
1151477021

>  <Receptor>
PLA2

>  <Reference>
1. Shiyu S, et al. BMC Cell Biol, 2011, 25, 12:31.

>  <Row>
D

>  <SMILES>
OCC1OC(OC2=CC(C=CC3=CC=C(O)C=C3)=CC(O)=C2)C(O)C(O)C1O

>  <Target>
Phospholipase inhibitor

>  <Weight>
10.2mg

$$$$
Lab-1.sdf
  ChemDraw05232018482D

 12 12  0  0  0  0  0  0  0  0999 V2000
   -0.3572    0.0000    0.0000 O   0  0  0  0  0  0  0  0  0  0  0  0
   -0.3572    0.0000    0.0000 C   0  0  0  0  0  0  0  0  0  0  0  0
    0.3572    0.0000    0.0000 C   0  0  0  0  0  0  0  0  0  0  0  0
    0.3572    0.0000    0.0000 C   0  0  0  0  0  0  0  0  0  0  0  0
   -0.3572    0.0000    0.0000 C   0  0  0  0  0  0  0  0  0  0  0  0
   -1.0717    0.0000    0.0000 C   0  0  0  0  0  0  0  0  0  0  0  0
   -1.7861    0.0000    0.0000 O   0  0  0  0  0  0  0  0  0  0  0  0
   -1.0717    0.0000    0.0000 C   0  0  0  0  0  0  0  0  0  0  0  0
   -1.7861    0.0000    0.0000 O   0  0  0  0  0  0  0  0  0  0  0  0
    1.0717    0.0000    0.0000 C   0  0  0  0  0  0  0  0  0  0  0  0
    1.7861    0.0000    0.0000 O   0  0  0  0  0  0  0  0  0  0  0  0
    1.0717    0.0000    0.0000 O   0  0  0  0  0  0  0  0  0  0  0  0
  1  2  1  0      
  2  3  1  0      
  3  4  1  0      
  4  5  2  0      
  5  6  1  0      
  6  7  1  0      
  6  8  1  0      
  2  8  1  0      
  8  9  1  0      
  4 10  1  0      
 10 11  1  0      
 10 12  2  0      
M  END
>  <Bioactivity>
Actions Biosynthetic precursor of aromatic amino acids,as well as many alkaloids and other aromatic metabolites.

>  <CAS>
138-59-0

>  <Col>
2

>  <Formula>
C7H10O5

>  <ID>
T2739

>  <Index>
201

>  <MOLENAME>
Shikimic Acid

>  <MolWt>
174.15

>  <Pathways>
Others

>  <Plate>
PLATE 003

>  <QR code>
1151477009

>  <Receptor>
Others

>  <Reference>
1. Brown SA, et al. Nature, 1955, 175(4459), 688-689.

>  <Row>
E

>  <SMILES>
OC1CC(=CC(O)C1O)C(O)=O

>  <Target>
Others

>  <Weight>
10.1mg

$$$$
Lab-1.sdf
  ChemDraw05232018482D

 25 29  0  0  0  0  0  0  0  0999 V2000
   -1.4804    0.0000    0.0000 C   0  0  0  0  0  0  0  0  0  0  0  0
   -2.1986    0.0000    0.0000 C   0  0  0  0  0  0  0  0  0  0  0  0
   -2.2060    0.0000    0.0000 C   0  0  0  0  0  0  0  0  0  0  0  0
   -2.7684    0.0000    0.0000 C   0  0  0  0  0  0  0  0  0  0  0  0
   -2.1714    0.0000    0.0000 C   0  0  0  0  0  0  0  0  0  0  0  0
   -2.2628    0.0000    0.0000 C   0  0  0  0  0  0  0  0  0  0  0  0
   -1.5406    0.0000    0.0000 N   0  0  0  0  0  0  0  0  0  0  0  0
   -0.8444    0.0000    0.0000 C   0  0  0  0  0  0  0  0  0  0  0  0
   -0.0060    0.0000    0.0000 C   0  0  0  0  0  0  0  0  0  0  0  0
    0.3564    0.0000    0.0000 C   0  0  0  0  0  0  0  0  0  0  0  0
    0.0520    0.0000    0.0000 C   0  0  0  0  0  0  0  0  0  0  0  0
    0.6871    0.0000    0.0000 N   0  0  0  0  0  0  0  0  0  0  0  0
    1.3841    0.0000    0.0000 C   0  0  0  0  0  0  0  0  0  0  0  0
    2.1785    0.0000    0.0000 C   0  0  0  0  0  0  0  0  0  0  0  0
    2.7684    0.0000    0.0000 C   0  0  0  0  0  0  0  0  0  0  0  0
    2.5640    0.0000    0.0000 C   0  0  0  0  0  0  0  0  0  0  0  0
    1.7697    0.0000    0.0000 C   0  0  0  0  0  0  0  0  0  0  0  0
    1.1797    0.0000    0.0000 C   0  0  0  0  0  0  0  0  0  0  0  0
   -0.8033    0.0000    0.0000 C   0  0  0  0  0  0  0  0  0  0  0  0
   -1.2565    0.0000    0.0000 C   0  0  0  0  0  0  0  0  0  0  0  0
   -1.6374    0.0000    0.0000 C   0  0  0  0  0  0  0  0  0  0  0  0
   -0.8571    0.0000    0.0000 C   0  0  0  0  0  0  0  0  0  0  0  0
   -1.5969    0.0000    0.0000 O   0  0  0  0  0  0  0  0  0  0  0  0
   -0.1710    0.0000    0.0000 O   0  0  0  0  0  0  0  0  0  0  0  0
   -0.2247    0.0000    0.0000 C   0  0  0  0  0  0  0  0  0  0  0  0
  1  2  1  0      
  2  3  1  0      
  3  4  2  0      
  4  5  1  0      
  5  6  1  0      
  6  7  1  0      
  7  8  1  0      
  8  9  1  0      
  9 10  1  0      
 10 11  2  0      
 11 12  1  0      
 12 13  1  0      
 13 14  2  0      
 14 15  1  0      
 15 16  2  0      
 16 17  1  0      
 17 18  2  0      
 10 18  1  0      
 13 18  1  0      
 11 19  1  0      
 19 20  1  0      
  5 20  1  0      
 19 21  1  0      
  3 21  1  0      
  7 21  1  0      
 19 22  1  0      
 22 23  2  0      
 22 24  1  0      
 24 25  1  0      
M  END
>  <Bioactivity>
Catharanthine inhibits nicotinic receptor mediated diaphragm contractions with IC50 of 59.6 ¦ÌM.

>  <CAS>
2468-21-5

>  <Col>
3

>  <Formula>
C21H24N2O2

>  <ID>
T2782

>  <Index>
202

>  <MOLENAME>
Catharanthine

>  <MolWt>
336.42

>  <Pathways>
Neuroscience

>  <Plate>
PLATE 003

>  <QR code>
1151477008

>  <Receptor>
Nicotinic AChR

>  <Reference>
1. Pereira DM, et al. Phytomedicine, 2010, 17(8-9), 646-652.

>  <Row>
E

>  <SMILES>
CCC1=CC2CN3CCC4=C(NC5=CC=CC=C45)C(C2)(C13)C(=O)OC

>  <Target>
AChR antagonist

>  <Weight>
10.3mg

$$$$
Lab-1.sdf
  ChemDraw05232018482D

 25 27  0  0  0  0  0  0  0  0999 V2000
   -3.9532    0.0000    0.0000 Cl  0  0  0  0  0  0  0  0  0  0  0  0
    2.3888    0.0000    0.0000 C   0  0  0  0  0  0  0  0  0  0  0  0
    2.4702    0.0000    0.0000 O   0  0  0  0  0  0  0  0  0  0  0  0
    1.7999    0.0000    0.0000 C   0  0  0  0  0  0  0  0  0  0  0  0
    1.0539    0.0000    0.0000 C   0  0  0  0  0  0  0  0  0  0  0  0
    0.3779    0.0000    0.0000 C   0  0  0  0  0  0  0  0  0  0  0  0
   -0.2390    0.0000    0.0000 C   0  0  0  0  0  0  0  0  0  0  0  0
    0.5849    0.0000    0.0000 C   0  0  0  0  0  0  0  0  0  0  0  0
    1.1390    0.0000    0.0000 C   0  0  0  0  0  0  0  0  0  0  0  0
    1.0987    0.0000    0.0000 C   0  0  0  0  0  0  0  0  0  0  0  0
    1.7922    0.0000    0.0000 C   0  0  0  0  0  0  0  0  0  0  0  0
    1.7518    0.0000    0.0000 O   0  0  0  0  0  0  0  0  0  0  0  0
    2.5260    0.0000    0.0000 C   0  0  0  0  0  0  0  0  0  0  0  0
    3.2194    0.0000    0.0000 O   0  0  0  0  0  0  0  0  0  0  0  0
    3.9532    0.0000    0.0000 C   0  0  0  0  0  0  0  0  0  0  0  0
    2.5663    0.0000    0.0000 C   0  0  0  0  0  0  0  0  0  0  0  0
    1.8728    0.0000    0.0000 C   0  0  0  0  0  0  0  0  0  0  0  0
    0.4593    0.0000    0.0000 C   0  0  0  0  0  0  0  0  0  0  0  0
   -0.3364    0.0000    0.0000 C   0  0  0  0  0  0  0  0  0  0  0  0
   -0.8905    0.0000    0.0000 C   0  0  0  0  0  0  0  0  0  0  0  0
   -0.8502    0.0000    0.0000 N   0  0  0  0  0  0  0  0  0  0  0  0
   -1.5961    0.0000    0.0000 C   0  0  0  0  0  0  0  0  0  0  0  0
    1.2110    0.0000    0.0000 C   0  0  0  0  0  0  0  0  0  0  0  0
    1.8813    0.0000    0.0000 C   0  0  0  0  0  0  0  0  0  0  0  0
    2.6330    0.0000    0.0000 O   0  0  0  0  0  0  0  0  0  0  0  0
  2  3  1  0      
  3  4  1  0      
  4  5  2  0      
  5  6  1  0      
  6  7  1  0      
  7  8  1  0      
  8  9  1  0      
  9 10  2  0      
 10 11  1  0      
 11 12  1  0      
 11 13  2  0      
 13 14  1  0      
 14 15  1  0      
 13 16  1  0      
 16 17  2  0      
  9 17  1  0      
 10 18  1  0      
  6 18  1  0      
 18 19  1  0      
 19 20  1  0      
 20 21  1  0      
  7 21  1  0      
 21 22  1  0      
 18 23  1  0      
 23 24  1  0      
  4 24  1  0      
 24 25  2  0      
M  END
>  <Bioactivity>
Extracted from Sinomenium Acutum Rehderett Wilson;Store the product in sealed, cool and dry condition

>  <CAS>
6080-33-7

>  <Col>
4

>  <Formula>
C19H24ClNO4

>  <ID>
T2921

>  <Index>
203

>  <MOLENAME>
Sinomenine hydrochloride

>  <MolWt>
365.85

>  <Pathways>
Immunology/Inflammation

>  <Plate>
PLATE 003

>  <QR code>
1151477007

>  <Receptor>
NF-¦ÊB

>  <Reference>
1. Song L, et al. Biochem Biophys Res Commun. 2015 Aug 28;464(3):705-10.

>  <Row>
E

>  <SMILES>
Cl.COC1=CC2C3CC4=C(C(O)=C(OC)C=C4)C2(CCN3C)CC1=O

>  <Target>
NF-¦ÊB inhibitor

>  <Weight>
10.1mg

$$$$
Lab-1.sdf
  ChemDraw05232018482D

 13 13  0  0  0  0  0  0  0  0999 V2000
    0.7145    0.0000    0.0000 C   0  0  0  0  0  0  0  0  0  0  0  0
    0.7145    0.0000    0.0000 C   0  0  0  0  0  0  0  0  0  0  0  0
    0.0000    0.0000    0.0000 C   0  0  0  0  0  0  0  0  0  0  0  0
   -0.7145    0.0000    0.0000 C   0  0  0  0  0  0  0  0  0  0  0  0
   -0.7145    0.0000    0.0000 C   0  0  0  0  0  0  0  0  0  0  0  0
    0.0000    0.0000    0.0000 C   0  0  0  0  0  0  0  0  0  0  0  0
   -0.3872    0.0000    0.0000 C   0  0  0  0  0  0  0  0  0  0  0  0
   -1.2117    0.0000    0.0000 O   0  0  0  0  0  0  0  0  0  0  0  0
    0.0499    0.0000    0.0000 O   0  0  0  0  0  0  0  0  0  0  0  0
    0.3873    0.0000    0.0000 O   0  0  0  0  0  0  0  0  0  0  0  0
   -1.4289    0.0000    0.0000 O   0  0  0  0  0  0  0  0  0  0  0  0
    0.0000    0.0000    0.0000 O   0  0  0  0  0  0  0  0  0  0  0  0
    1.4289    0.0000    0.0000 O   0  0  0  0  0  0  0  0  0  0  0  0
  1  2  1  0      
  2  3  1  0      
  3  4  1  0      
  4  5  1  0      
  5  6  1  0      
  1  6  1  0      
  6  7  1  0      
  7  8  2  0      
  7  9  1  0      
  6 10  1  0      
  4 11  1  0      
  3 12  1  0      
  2 13  1  0      
M  END
>  <Bioactivity>
Extracted from Cinchona bark;Store the product in sealed,cool and dry condition

>  <CAS>
77-95-2

>  <Col>
5

>  <Formula>
C7H12O6

>  <ID>
T2958

>  <Index>
204

>  <MOLENAME>
Quinic acid 

>  <MolWt>
192.17

>  <Pathways>
Others

>  <Plate>
PLATE 003

>  <QR code>
1151477006

>  <Receptor>
Others

>  <Reference>
1. Lee SY, et al. Bioorg Med Chem Lett. 2013 Apr 1;23(7):2140-4. 

>  <Row>
E

>  <SMILES>
C1C(C(C(CC1(C(=O)O)O)O)O)O

>  <Target>
Others

>  <Weight>
10.3mg

$$$$
Lab-1.sdf
  ChemDraw05232018482D

 12 12  0  0  0  0  0  0  0  0999 V2000
   -1.0717    0.0000    0.0000 O   0  0  0  0  0  0  0  0  0  0  0  0
   -0.3572    0.0000    0.0000 C   0  0  0  0  0  0  0  0  0  0  0  0
    0.3573    0.0000    0.0000 O   0  0  0  0  0  0  0  0  0  0  0  0
   -0.3572    0.0000    0.0000 C   0  0  0  0  0  0  0  0  0  0  0  0
    0.3573    0.0000    0.0000 C   0  0  0  0  0  0  0  0  0  0  0  0
    0.3573    0.0000    0.0000 C   0  0  0  0  0  0  0  0  0  0  0  0
    1.0717    0.0000    0.0000 C   0  0  0  0  0  0  0  0  0  0  0  0
    1.0717    0.0000    0.0000 C   0  0  0  0  0  0  0  0  0  0  0  0
    0.3573    0.0000    0.0000 C   0  0  0  0  0  0  0  0  0  0  0  0
    0.3573    0.0000    0.0000 O   0  0  0  0  0  0  0  0  0  0  0  0
   -0.3572    0.0000    0.0000 C   0  0  0  0  0  0  0  0  0  0  0  0
   -0.3572    0.0000    0.0000 C   0  0  0  0  0  0  0  0  0  0  0  0
  1  2  1  0      
  2  3  2  0      
  2  4  1  0      
  4  5  1  0      
  5  6  1  0      
  6  7  2  0      
  7  8  1  0      
  8  9  2  0      
  9 10  1  0      
  9 11  1  0      
 11 12  2  0      
  6 12  1  0      
M  END
>  <Bioactivity>
Phloretic acid is a phenolic compound. It can be used to produce polyesters based on phloretic acid and gallic acid.

>  <CAS>
501-97-3

>  <Col>
6

>  <Formula>
C9H10O3

>  <ID>
T2862

>  <Index>
205

>  <MOLENAME>
Phloretic acid

>  <MolWt>
166.17

>  <Pathways>
Others

>  <Plate>
PLATE 003

>  <QR code>
1151477005

>  <Receptor>
Others

>  <Reference>
1. Chesson A, et al. Applied and environmental microbiology, 1982, 44 (3): 597?603. 

>  <Row>
E

>  <SMILES>
OC(=O)CCC1=CC=C(O)C=C1

>  <Target>
Others

>  <Weight>
10.3mg

$$$$
Lab-1.sdf
  ChemDraw05232018482D

 27 31  0  0  0  0  0  0  0  0999 V2000
    2.3796    0.0000    0.0000 C   0  0  0  0  0  0  0  0  0  0  0  0
    2.8875    0.0000    0.0000 C   0  0  0  0  0  0  0  0  0  0  0  0
    2.5785    0.0000    0.0000 C   0  0  0  0  0  0  0  0  0  0  0  0
    1.8788    0.0000    0.0000 O   0  0  0  0  0  0  0  0  0  0  0  0
    3.3855    0.0000    0.0000 C   0  0  0  0  0  0  0  0  0  0  0  0
    3.9375    0.0000    0.0000 O   0  0  0  0  0  0  0  0  0  0  0  0
    3.6404    0.0000    0.0000 O   0  0  0  0  0  0  0  0  0  0  0  0
    3.0884    0.0000    0.0000 C   0  0  0  0  0  0  0  0  0  0  0  0
    2.2814    0.0000    0.0000 C   0  0  0  0  0  0  0  0  0  0  0  0
    2.0265    0.0000    0.0000 C   0  0  0  0  0  0  0  0  0  0  0  0
    1.2195    0.0000    0.0000 C   0  0  0  0  0  0  0  0  0  0  0  0
    0.6674    0.0000    0.0000 C   0  0  0  0  0  0  0  0  0  0  0  0
    0.9224    0.0000    0.0000 N   0  0  0  0  0  0  0  0  0  0  0  0
    0.2549    0.0000    0.0000 C   0  0  0  0  0  0  0  0  0  0  0  0
   -0.4125    0.0000    0.0000 C   0  0  0  0  0  0  0  0  0  0  0  0
   -0.1576    0.0000    0.0000 C   0  0  0  0  0  0  0  0  0  0  0  0
   -0.7096    0.0000    0.0000 N   0  0  0  0  0  0  0  0  0  0  0  0
   -1.5166    0.0000    0.0000 C   0  0  0  0  0  0  0  0  0  0  0  0
   -2.0686    0.0000    0.0000 C   0  0  0  0  0  0  0  0  0  0  0  0
   -2.8756    0.0000    0.0000 C   0  0  0  0  0  0  0  0  0  0  0  0
   -3.1305    0.0000    0.0000 C   0  0  0  0  0  0  0  0  0  0  0  0
   -3.9375    0.0000    0.0000 O   0  0  0  0  0  0  0  0  0  0  0  0
   -2.5785    0.0000    0.0000 C   0  0  0  0  0  0  0  0  0  0  0  0
   -1.7715    0.0000    0.0000 C   0  0  0  0  0  0  0  0  0  0  0  0
   -1.2195    0.0000    0.0000 C   0  0  0  0  0  0  0  0  0  0  0  0
    1.7294    0.0000    0.0000 C   0  0  0  0  0  0  0  0  0  0  0  0
    1.9843    0.0000    0.0000 O   0  0  0  0  0  0  0  0  0  0  0  0
  1  2  1  0      
  2  3  1  0      
  3  4  1  0      
  3  5  1  0      
  5  6  2  0      
  5  7  1  0      
  7  8  1  0      
  8  9  1  0      
  9 10  2  0      
  3 10  1  0      
 10 11  1  0      
 11 12  2  0      
 12 13  1  0      
 13 14  1  0      
 14 15  1  0      
 15 16  2  0      
 12 16  1  0      
 16 17  1  0      
 17 18  2  0      
 18 19  1  0      
 19 20  2  0      
 20 21  1  0      
 21 22  1  0      
 21 23  2  0      
 23 24  1  0      
 18 24  1  0      
 24 25  2  0      
 15 25  1  0      
 13 26  1  0      
  9 26  1  0      
 26 27  2  0      
M  END
>  <Bioactivity>
(S)-10-Hydroxycamptothecin is a clinical therapy agent against hepatoma. 

>  <CAS>
19685-09-7

>  <Col>
7

>  <Formula>
C20H16N2O5

>  <ID>
T2764

>  <Index>
206

>  <MOLENAME>
10-Hydroxycamptothecin

>  <MolWt>
364.36

>  <Pathways>
DNA Damage/DNA Repair

>  <Plate>
PLATE 003

>  <QR code>
1151477004

>  <Receptor>
Topoisomerase I 

>  <Reference>
1. Teicher BA. Biochem Pharmacol. 2007 Oct 22;.

>  <Row>
E

>  <SMILES>
CCC1(O)C(=O)OCC2=C1C=C1N(CC3=C1N=C1C=CC(O)=CC1=C3)C2=O

>  <Target>
Topoisomerase inhibitor

>  <Weight>
10.2mg

$$$$
Lab-1.sdf
  ChemDraw05232018482D

 21 23  0  0  0  0  0  0  0  0999 V2000
   -3.2151    0.0000    0.0000 C   0  0  0  0  0  0  0  0  0  0  0  0
   -3.2151    0.0000    0.0000 O   0  0  0  0  0  0  0  0  0  0  0  0
   -2.5006    0.0000    0.0000 C   0  0  0  0  0  0  0  0  0  0  0  0
   -2.5006    0.0000    0.0000 C   0  0  0  0  0  0  0  0  0  0  0  0
   -1.7862    0.0000    0.0000 C   0  0  0  0  0  0  0  0  0  0  0  0
   -1.0717    0.0000    0.0000 C   0  0  0  0  0  0  0  0  0  0  0  0
   -1.0717    0.0000    0.0000 C   0  0  0  0  0  0  0  0  0  0  0  0
   -1.7862    0.0000    0.0000 C   0  0  0  0  0  0  0  0  0  0  0  0
   -0.3572    0.0000    0.0000 C   0  0  0  0  0  0  0  0  0  0  0  0
   -0.3572    0.0000    0.0000 C   0  0  0  0  0  0  0  0  0  0  0  0
    0.3572    0.0000    0.0000 O   0  0  0  0  0  0  0  0  0  0  0  0
    1.0717    0.0000    0.0000 C   0  0  0  0  0  0  0  0  0  0  0  0
    1.7862    0.0000    0.0000 C   0  0  0  0  0  0  0  0  0  0  0  0
    2.5007    0.0000    0.0000 C   0  0  0  0  0  0  0  0  0  0  0  0
    3.2151    0.0000    0.0000 O   0  0  0  0  0  0  0  0  0  0  0  0
    2.5007    0.0000    0.0000 C   0  0  0  0  0  0  0  0  0  0  0  0
    1.7862    0.0000    0.0000 C   0  0  0  0  0  0  0  0  0  0  0  0
    1.7862    0.0000    0.0000 O   0  0  0  0  0  0  0  0  0  0  0  0
    1.0717    0.0000    0.0000 C   0  0  0  0  0  0  0  0  0  0  0  0
    0.3572    0.0000    0.0000 C   0  0  0  0  0  0  0  0  0  0  0  0
    0.3572    0.0000    0.0000 O   0  0  0  0  0  0  0  0  0  0  0  0
  1  2  1  0      
  2  3  1  0      
  3  4  2  0      
  4  5  1  0      
  5  6  2  0      
  6  7  1  0      
  7  8  2  0      
  3  8  1  0      
  6  9  1  0      
  9 10  2  0      
 10 11  1  0      
 11 12  1  0      
 12 13  2  0      
 13 14  1  0      
 14 15  1  0      
 14 16  2  0      
 16 17  1  0      
 17 18  1  0      
 17 19  2  0      
 12 19  1  0      
 19 20  1  0      
  9 20  1  0      
 20 21  2  0      
M  END
>  <Bioactivity>
Biochanin A, an O-methylated isoflavone from Trifolium pratense, inhibits protein tyrosine kinase (PTK) of epidermal growth factor receptor with IC50 values of 91.5 ¦ÌM.

>  <CAS>
491-80-5

>  <Col>
8

>  <Formula>
C16H12O5

>  <ID>
T2859

>  <Index>
207

>  <MOLENAME>
Biochanin A

>  <MolWt>
284.26

>  <Pathways>
Metabolism

>  <Plate>
PLATE 003

>  <QR code>
1151477003

>  <Receptor>
FAAH; EGFR

>  <Reference>
1. Akiyama T, et al. J Biol Chem, 1987, 262(12), 5592-5595.

>  <Row>
E

>  <SMILES>
COC1=CC=C(C=C1)C1=COC2=CC(O)=CC(O)=C2C1=O

>  <Target>
FAAH inhibitor; EGFR inhibitor

>  <Weight>
10.4mg

$$$$
Lab-1.sdf
  ChemDraw05232018482D

 15 16  0  0  0  0  0  0  0  0999 V2000
   -2.1433    0.0000    0.0000 C   0  0  0  0  0  0  0  0  0  0  0  0
   -2.1433    0.0000    0.0000 O   0  0  0  0  0  0  0  0  0  0  0  0
   -1.4289    0.0000    0.0000 C   0  0  0  0  0  0  0  0  0  0  0  0
   -1.4289    0.0000    0.0000 C   0  0  0  0  0  0  0  0  0  0  0  0
   -0.7145    0.0000    0.0000 C   0  0  0  0  0  0  0  0  0  0  0  0
   -0.7145    0.0000    0.0000 O   0  0  0  0  0  0  0  0  0  0  0  0
   -0.0000    0.0000    0.0000 C   0  0  0  0  0  0  0  0  0  0  0  0
   -0.0000    0.0000    0.0000 C   0  0  0  0  0  0  0  0  0  0  0  0
    0.7145    0.0000    0.0000 C   0  0  0  0  0  0  0  0  0  0  0  0
    1.4290    0.0000    0.0000 C   0  0  0  0  0  0  0  0  0  0  0  0
    1.4290    0.0000    0.0000 C   0  0  0  0  0  0  0  0  0  0  0  0
    2.1433    0.0000    0.0000 O   0  0  0  0  0  0  0  0  0  0  0  0
    0.7145    0.0000    0.0000 O   0  0  0  0  0  0  0  0  0  0  0  0
   -0.0000    0.0000    0.0000 C   0  0  0  0  0  0  0  0  0  0  0  0
   -0.7145    0.0000    0.0000 C   0  0  0  0  0  0  0  0  0  0  0  0
  1  2  1  0      
  2  3  1  0      
  3  4  2  0      
  4  5  1  0      
  5  6  1  0      
  6  7  1  0      
  5  8  2  0      
  8  9  1  0      
  9 10  2  0      
 10 11  1  0      
 11 12  2  0      
 11 13  1  0      
 13 14  1  0      
  8 14  1  0      
 14 15  2  0      
  3 15  1  0      
M  END
>  <Bioactivity>
Citropten is a natural organic compound and is found in the essential oils of citrus such as lime, lemon, and bergamot.

>  <CAS>
487-06-9

>  <Col>
9

>  <Formula>
C11H10O4

>  <ID>
T2852

>  <Index>
208

>  <MOLENAME>
Citropten

>  <MolWt>
206.2

>  <Pathways>
Others

>  <Plate>
PLATE 003

>  <QR code>
1151477002

>  <Receptor>
Others

>  <Reference>
1. Zdybel M,et al. Acta Pol Pharm. 2014 Nov-Dec;71(6):1066-72.

>  <Row>
E

>  <SMILES>
COC1=CC(OC)=C2C=CC(=O)OC2=C1

>  <Target>
Others

>  <Weight>
10.3mg

$$$$
Lab-1.sdf
  ChemDraw05232018482D

 28 31  0  0  0  0  0  0  0  0999 V2000
   -4.9410    0.0000    0.0000 C   0  0  0  0  0  0  0  0  0  0  0  0
   -4.2266    0.0000    0.0000 C   0  0  0  0  0  0  0  0  0  0  0  0
   -4.2266    0.0000    0.0000 C   0  0  0  0  0  0  0  0  0  0  0  0
   -3.5122    0.0000    0.0000 C   0  0  0  0  0  0  0  0  0  0  0  0
   -2.7977    0.0000    0.0000 C   0  0  0  0  0  0  0  0  0  0  0  0
   -2.0833    0.0000    0.0000 C   0  0  0  0  0  0  0  0  0  0  0  0
   -1.3688    0.0000    0.0000 C   0  0  0  0  0  0  0  0  0  0  0  0
   -1.3688    0.0000    0.0000 C   0  0  0  0  0  0  0  0  0  0  0  0
   -0.6543    0.0000    0.0000 C   0  0  0  0  0  0  0  0  0  0  0  0
   -0.5681    0.0000    0.0000 C   0  0  0  0  0  0  0  0  0  0  0  0
    0.2388    0.0000    0.0000 C   0  0  0  0  0  0  0  0  0  0  0  0
    0.6513    0.0000    0.0000 C   0  0  0  0  0  0  0  0  0  0  0  0
    1.4583    0.0000    0.0000 C   0  0  0  0  0  0  0  0  0  0  0  0
    2.0103    0.0000    0.0000 C   0  0  0  0  0  0  0  0  0  0  0  0
    2.8173    0.0000    0.0000 C   0  0  0  0  0  0  0  0  0  0  0  0
    3.0722    0.0000    0.0000 C   0  0  0  0  0  0  0  0  0  0  0  0
    3.8791    0.0000    0.0000 C   0  0  0  0  0  0  0  0  0  0  0  0
    4.1340    0.0000    0.0000 C   0  0  0  0  0  0  0  0  0  0  0  0
    4.9410    0.0000    0.0000 O   0  0  0  0  0  0  0  0  0  0  0  0
    3.5821    0.0000    0.0000 C   0  0  0  0  0  0  0  0  0  0  0  0
    2.7751    0.0000    0.0000 C   0  0  0  0  0  0  0  0  0  0  0  0
    2.5202    0.0000    0.0000 C   0  0  0  0  0  0  0  0  0  0  0  0
    1.9681    0.0000    0.0000 C   0  0  0  0  0  0  0  0  0  0  0  0
    1.7132    0.0000    0.0000 C   0  0  0  0  0  0  0  0  0  0  0  0
    1.1612    0.0000    0.0000 C   0  0  0  0  0  0  0  0  0  0  0  0
    0.3542    0.0000    0.0000 C   0  0  0  0  0  0  0  0  0  0  0  0
    0.0993    0.0000    0.0000 C   0  0  0  0  0  0  0  0  0  0  0  0
   -0.5137    0.0000    0.0000 C   0  0  0  0  0  0  0  0  0  0  0  0
  1  2  1  0      
  2  3  1  0      
  2  4  1  0      
  4  5  1  0      
  5  6  1  0      
  6  7  1  0      
  7  8  1  0      
  7  9  1  0      
  9 10  1  0      
 10 11  1  0      
 11 12  1  0      
 12 13  1  0      
 13 14  1  0      
 14 15  1  0      
 15 16  1  0      
 16 17  1  0      
 17 18  1  0      
 18 19  2  0      
 18 20  1  0      
 20 21  1  0      
 21 22  1  0      
 16 22  1  0      
 22 23  1  0      
 22 24  1  0      
 13 24  1  0      
 24 25  1  0      
 25 26  1  0      
 26 27  1  0      
  9 27  1  0      
 12 27  1  0      
 27 28  1  0      
M  END
>  <Bioactivity>
5alpha-Cholestan-3-one(5aCh3) is an intermediate product in cholesterol metabolism, which is elevated in the case of cerebrotendinous xanthomatosis.

>  <CAS>
566-88-1

>  <Col>
10

>  <Formula>
C27H46O

>  <ID>
T2905

>  <Index>
209

>  <MOLENAME>
5alpha-Cholestan-3-one

>  <MolWt>
386.67

>  <Pathways>
Others

>  <Plate>
PLATE 003

>  <QR code>
1151477001

>  <Receptor>
Others

>  <Reference>
1. Kasimov MR, et al. Biochim Biophys Acta. 2015 May;1851(5):674-85.

>  <Row>
E

>  <SMILES>
CC(C)CCCC(C)C1CCC2C3CCC4CC(=O)CCC4(C)C3CCC12C

>  <Target>
Others

>  <Weight>
10.2mg

$$$$
Lab-1.sdf
  ChemDraw05232018482D

 19 20  0  0  0  0  0  0  0  0999 V2000
   -3.1388    0.0000    0.0000 O   0  0  0  0  0  0  0  0  0  0  0  0
    2.4243    0.0000    0.0000 N   0  0  0  0  0  0  0  0  0  0  0  0
    2.4243    0.0000    0.0000 C   0  0  0  0  0  0  0  0  0  0  0  0
    3.1388    0.0000    0.0000 N   0  0  0  0  0  0  0  0  0  0  0  0
    3.1388    0.0000    0.0000 C   0  0  0  0  0  0  0  0  0  0  0  0
    2.4243    0.0000    0.0000 N   0  0  0  0  0  0  0  0  0  0  0  0
    1.7100    0.0000    0.0000 C   0  0  0  0  0  0  0  0  0  0  0  0
    1.7100    0.0000    0.0000 C   0  0  0  0  0  0  0  0  0  0  0  0
    0.9252    0.0000    0.0000 N   0  0  0  0  0  0  0  0  0  0  0  0
    0.4403    0.0000    0.0000 C   0  0  0  0  0  0  0  0  0  0  0  0
    0.9252    0.0000    0.0000 N   0  0  0  0  0  0  0  0  0  0  0  0
    0.6703    0.0000    0.0000 C   0  0  0  0  0  0  0  0  0  0  0  0
    1.1552    0.0000    0.0000 C   0  0  0  0  0  0  0  0  0  0  0  0
    0.6703    0.0000    0.0000 C   0  0  0  0  0  0  0  0  0  0  0  0
    0.9252    0.0000    0.0000 O   0  0  0  0  0  0  0  0  0  0  0  0
   -0.1142    0.0000    0.0000 C   0  0  0  0  0  0  0  0  0  0  0  0
   -0.7817    0.0000    0.0000 C   0  0  0  0  0  0  0  0  0  0  0  0
   -0.6954    0.0000    0.0000 O   0  0  0  0  0  0  0  0  0  0  0  0
   -0.1142    0.0000    0.0000 O   0  0  0  0  0  0  0  0  0  0  0  0
  2  3  1  0      
  3  4  2  0      
  4  5  1  0      
  5  6  2  0      
  6  7  1  0      
  7  8  2  0      
  3  8  1  0      
  8  9  1  0      
  9 10  2  0      
 10 11  1  0      
  7 11  1  0      
 11 12  1  0      
 12 13  1  0      
 13 14  1  0      
 14 15  1  0      
 14 16  1  0      
 16 17  1  0      
 17 18  1  0      
 16 19  1  0      
 12 19  1  0      
M  END
>  <Bioactivity>
Deoxyadenosine is a deoxyribonucleoside. It is a derivative of the nucleoside adenosine, differing from the latter by the replacement of a hydroxyl group (-OH) by hydrogen (-H) at the 2' position of i
ts ribose sugar moiety.

>  <CAS>
16373-93-6

>  <Col>
11

>  <Formula>
C10H15N5O4

>  <ID>
T2752

>  <Index>
210

>  <MOLENAME>
2'-Deoxyadenosine monohydrate

>  <MolWt>
269.26

>  <Pathways>
Others

>  <Plate>
PLATE 003

>  <QR code>
1151477000

>  <Receptor>
Others

>  <Reference>
1. Kore AR, et al. Nucleosides Nucleotides Nucleic Acids. 2015;34(1):33-9. 

>  <Row>
E

>  <SMILES>
O.NC1=NC=NC2=C1N=CN2C1CC(O)C(CO)O1

>  <Target>
Others

>  <Weight>
10.3mg

$$$$
Lab-1.sdf
  ChemDraw05232018482D

 18 20  0  0  0  0  0  0  0  0999 V2000
   -1.0717    0.0000    0.0000 O   0  0  0  0  0  0  0  0  0  0  0  0
   -0.3572    0.0000    0.0000 C   0  0  0  0  0  0  0  0  0  0  0  0
   -0.3572    0.0000    0.0000 C   0  0  0  0  0  0  0  0  0  0  0  0
    0.3571    0.0000    0.0000 O   0  0  0  0  0  0  0  0  0  0  0  0
    1.0716    0.0000    0.0000 C   0  0  0  0  0  0  0  0  0  0  0  0
    1.7861    0.0000    0.0000 C   0  0  0  0  0  0  0  0  0  0  0  0
    2.5006    0.0000    0.0000 C   0  0  0  0  0  0  0  0  0  0  0  0
    2.5006    0.0000    0.0000 C   0  0  0  0  0  0  0  0  0  0  0  0
    1.7861    0.0000    0.0000 C   0  0  0  0  0  0  0  0  0  0  0  0
    1.0716    0.0000    0.0000 C   0  0  0  0  0  0  0  0  0  0  0  0
    0.3571    0.0000    0.0000 C   0  0  0  0  0  0  0  0  0  0  0  0
    0.3571    0.0000    0.0000 O   0  0  0  0  0  0  0  0  0  0  0  0
   -1.0717    0.0000    0.0000 C   0  0  0  0  0  0  0  0  0  0  0  0
   -1.7862    0.0000    0.0000 C   0  0  0  0  0  0  0  0  0  0  0  0
   -2.5006    0.0000    0.0000 C   0  0  0  0  0  0  0  0  0  0  0  0
   -2.5006    0.0000    0.0000 C   0  0  0  0  0  0  0  0  0  0  0  0
   -1.7862    0.0000    0.0000 C   0  0  0  0  0  0  0  0  0  0  0  0
   -1.0717    0.0000    0.0000 C   0  0  0  0  0  0  0  0  0  0  0  0
  1  2  1  0      
  2  3  2  0      
  3  4  1  0      
  4  5  1  0      
  5  6  2  0      
  6  7  1  0      
  7  8  2  0      
  8  9  1  0      
  9 10  2  0      
  5 10  1  0      
 10 11  1  0      
  2 11  1  0      
 11 12  2  0      
  3 13  1  0      
 13 14  2  0      
 14 15  1  0      
 15 16  2  0      
 16 17  1  0      
 17 18  2  0      
 13 18  1  0      
M  END
>  <Bioactivity>
3-Hydroxyflavone is a chemical compound. It is the backbone of all flavonols, a type of flavonoid. It is a synthetic compound, which is not found naturally in plants.

>  <CAS>
577-85-5

>  <Col>
2

>  <Formula>
C15H10O3

>  <ID>
T2910

>  <Index>
211

>  <MOLENAME>
3-Hydroxyflavone

>  <MolWt>
238.25

>  <Pathways>
Others

>  <Plate>
PLATE 003

>  <QR code>
1151476988

>  <Receptor>
Others

>  <Reference>
1. Lau AJ, Chang TK. Pharmacol Res. 2015 Oct;100:64-72.

>  <Row>
F

>  <SMILES>
OC1=C(OC2=CC=CC=C2C1=O)C1=CC=CC=C1

>  <Target>
Others

>  <Weight>
10.5mg

$$$$
Lab-1.sdf
  ChemDraw05232018482D

 85 95  0  0  0  0  0  0  0  0999 V2000
   -5.4366    0.0000    0.0000 C   0  0  0  0  0  0  0  0  0  0  0  0
   -5.3123    0.0000    0.0000 C   0  0  0  0  0  0  0  0  0  0  0  0
   -4.5794    0.0000    0.0000 C   0  0  0  0  0  0  0  0  0  0  0  0
   -4.7131    0.0000    0.0000 C   0  0  0  0  0  0  0  0  0  0  0  0
   -5.5287    0.0000    0.0000 O   0  0  0  0  0  0  0  0  0  0  0  0
   -5.8990    0.0000    0.0000 C   0  0  0  0  0  0  0  0  0  0  0  0
   -6.1902    0.0000    0.0000 C   0  0  0  0  0  0  0  0  0  0  0  0
   -7.0043    0.0000    0.0000 C   0  0  0  0  0  0  0  0  0  0  0  0
   -7.5273    0.0000    0.0000 C   0  0  0  0  0  0  0  0  0  0  0  0
   -8.3413    0.0000    0.0000 C   0  0  0  0  0  0  0  0  0  0  0  0
   -7.2361    0.0000    0.0000 C   0  0  0  0  0  0  0  0  0  0  0  0
   -6.4219    0.0000    0.0000 O   0  0  0  0  0  0  0  0  0  0  0  0
   -3.9802    0.0000    0.0000 C   0  0  0  0  0  0  0  0  0  0  0  0
   -3.8559    0.0000    0.0000 O   0  0  0  0  0  0  0  0  0  0  0  0
   -3.3935    0.0000    0.0000 C   0  0  0  0  0  0  0  0  0  0  0  0
   -2.5699    0.0000    0.0000 C   0  0  0  0  0  0  0  0  0  0  0  0
   -2.1996    0.0000    0.0000 C   0  0  0  0  0  0  0  0  0  0  0  0
   -1.3760    0.0000    0.0000 C   0  0  0  0  0  0  0  0  0  0  0  0
   -0.9227    0.0000    0.0000 C   0  0  0  0  0  0  0  0  0  0  0  0
   -0.0991    0.0000    0.0000 C   0  0  0  0  0  0  0  0  0  0  0  0
    0.3542    0.0000    0.0000 C   0  0  0  0  0  0  0  0  0  0  0  0
    1.1779    0.0000    0.0000 O   0  0  0  0  0  0  0  0  0  0  0  0
    1.5481    0.0000    0.0000 C   0  0  0  0  0  0  0  0  0  0  0  0
    1.0948    0.0000    0.0000 O   0  0  0  0  0  0  0  0  0  0  0  0
    1.4651    0.0000    0.0000 C   0  0  0  0  0  0  0  0  0  0  0  0
    1.0118    0.0000    0.0000 C   0  0  0  0  0  0  0  0  0  0  0  0
    0.1882    0.0000    0.0000 O   0  0  0  0  0  0  0  0  0  0  0  0
    2.2887    0.0000    0.0000 C   0  0  0  0  0  0  0  0  0  0  0  0
    2.6590    0.0000    0.0000 O   0  0  0  0  0  0  0  0  0  0  0  0
    3.4826    0.0000    0.0000 C   0  0  0  0  0  0  0  0  0  0  0  0
    3.9359    0.0000    0.0000 O   0  0  0  0  0  0  0  0  0  0  0  0
    4.7595    0.0000    0.0000 C   0  0  0  0  0  0  0  0  0  0  0  0
    5.2128    0.0000    0.0000 C   0  0  0  0  0  0  0  0  0  0  0  0
    6.0365    0.0000    0.0000 O   0  0  0  0  0  0  0  0  0  0  0  0
    5.1298    0.0000    0.0000 C   0  0  0  0  0  0  0  0  0  0  0  0
    5.9534    0.0000    0.0000 O   0  0  0  0  0  0  0  0  0  0  0  0
    4.6765    0.0000    0.0000 C   0  0  0  0  0  0  0  0  0  0  0  0
    5.0468    0.0000    0.0000 O   0  0  0  0  0  0  0  0  0  0  0  0
    5.8704    0.0000    0.0000 C   0  0  0  0  0  0  0  0  0  0  0  0
    6.2407    0.0000    0.0000 O   0  0  0  0  0  0  0  0  0  0  0  0
    7.0643    0.0000    0.0000 C   0  0  0  0  0  0  0  0  0  0  0  0
    7.5177    0.0000    0.0000 C   0  0  0  0  0  0  0  0  0  0  0  0
    8.3413    0.0000    0.0000 O   0  0  0  0  0  0  0  0  0  0  0  0
    7.1474    0.0000    0.0000 C   0  0  0  0  0  0  0  0  0  0  0  0
    7.6007    0.0000    0.0000 O   0  0  0  0  0  0  0  0  0  0  0  0
    6.3237    0.0000    0.0000 C   0  0  0  0  0  0  0  0  0  0  0  0
    6.4575    0.0000    0.0000 O   0  0  0  0  0  0  0  0  0  0  0  0
    3.8529    0.0000    0.0000 C   0  0  0  0  0  0  0  0  0  0  0  0
    3.3996    0.0000    0.0000 O   0  0  0  0  0  0  0  0  0  0  0  0
    3.7698    0.0000    0.0000 C   0  0  0  0  0  0  0  0  0  0  0  0
    3.3165    0.0000    0.0000 O   0  0  0  0  0  0  0  0  0  0  0  0
    3.6868    0.0000    0.0000 C   0  0  0  0  0  0  0  0  0  0  0  0
    3.2335    0.0000    0.0000 C   0  0  0  0  0  0  0  0  0  0  0  0
    2.4099    0.0000    0.0000 O   0  0  0  0  0  0  0  0  0  0  0  0
    4.5104    0.0000    0.0000 C   0  0  0  0  0  0  0  0  0  0  0  0
    4.8807    0.0000    0.0000 O   0  0  0  0  0  0  0  0  0  0  0  0
    4.9637    0.0000    0.0000 C   0  0  0  0  0  0  0  0  0  0  0  0
    5.7873    0.0000    0.0000 O   0  0  0  0  0  0  0  0  0  0  0  0
    6.1576    0.0000    0.0000 C   0  0  0  0  0  0  0  0  0  0  0  0
    5.7043    0.0000    0.0000 O   0  0  0  0  0  0  0  0  0  0  0  0
    6.0746    0.0000    0.0000 C   0  0  0  0  0  0  0  0  0  0  0  0
    5.6213    0.0000    0.0000 C   0  0  0  0  0  0  0  0  0  0  0  0
    4.7977    0.0000    0.0000 O   0  0  0  0  0  0  0  0  0  0  0  0
    6.8982    0.0000    0.0000 C   0  0  0  0  0  0  0  0  0  0  0  0
    7.2686    0.0000    0.0000 O   0  0  0  0  0  0  0  0  0  0  0  0
    7.3516    0.0000    0.0000 C   0  0  0  0  0  0  0  0  0  0  0  0
    8.1752    0.0000    0.0000 O   0  0  0  0  0  0  0  0  0  0  0  0
    6.9812    0.0000    0.0000 C   0  0  0  0  0  0  0  0  0  0  0  0
    7.4347    0.0000    0.0000 O   0  0  0  0  0  0  0  0  0  0  0  0
    4.5935    0.0000    0.0000 C   0  0  0  0  0  0  0  0  0  0  0  0
    5.3654    0.0000    0.0000 O   0  0  0  0  0  0  0  0  0  0  0  0
    2.7420    0.0000    0.0000 C   0  0  0  0  0  0  0  0  0  0  0  0
    3.5656    0.0000    0.0000 O   0  0  0  0  0  0  0  0  0  0  0  0
    2.3717    0.0000    0.0000 C   0  0  0  0  0  0  0  0  0  0  0  0
    2.8251    0.0000    0.0000 O   0  0  0  0  0  0  0  0  0  0  0  0
   -0.0160    0.0000    0.0000 C   0  0  0  0  0  0  0  0  0  0  0  0
    0.4373    0.0000    0.0000 O   0  0  0  0  0  0  0  0  0  0  0  0
   -0.8396    0.0000    0.0000 C   0  0  0  0  0  0  0  0  0  0  0  0
   -1.2930    0.0000    0.0000 C   0  0  0  0  0  0  0  0  0  0  0  0
   -1.6632    0.0000    0.0000 C   0  0  0  0  0  0  0  0  0  0  0  0
   -2.1166    0.0000    0.0000 C   0  0  0  0  0  0  0  0  0  0  0  0
   -2.4869    0.0000    0.0000 C   0  0  0  0  0  0  0  0  0  0  0  0
   -3.3105    0.0000    0.0000 C   0  0  0  0  0  0  0  0  0  0  0  0
   -3.7638    0.0000    0.0000 C   0  0  0  0  0  0  0  0  0  0  0  0
   -4.2091    0.0000    0.0000 C   0  0  0  0  0  0  0  0  0  0  0  0
  1  2  1  0      
  2  3  1  0      
  3  4  1  0      
  4  5  1  0      
  5  6  1  0      
  2  6  1  0      
  6  7  1  0      
  7  8  1  0      
  8  9  1  0      
  9 10  1  0      
  9 11  1  0      
 11 12  1  0      
  6 12  1  0      
  4 13  1  0      
 13 14  1  0      
 13 15  1  0      
 15 16  1  0      
 16 17  1  0      
 17 18  1  0      
 18 19  1  0      
 19 20  1  0      
 20 21  1  0      
 21 22  1  0      
 22 23  1  0      
 23 24  1  0      
 24 25  1  0      
 25 26  1  0      
 26 27  1  0      
 25 28  1  0      
 28 29  1  0      
 29 30  1  0      
 30 31  1  0      
 31 32  1  0      
 32 33  1  0      
 33 34  1  0      
 32 35  1  0      
 35 36  1  0      
 35 37  1  0      
 37 38  1  0      
 38 39  1  0      
 39 40  1  0      
 40 41  1  0      
 41 42  1  0      
 42 43  1  0      
 42 44  1  0      
 44 45  1  0      
 44 46  1  0      
 39 46  1  0      
 46 47  1  0      
 37 48  1  0      
 30 48  1  0      
 48 49  1  0      
 49 50  1  0      
 50 51  1  0      
 51 52  1  0      
 52 53  1  0      
 53 54  1  0      
 52 55  1  0      
 55 56  1  0      
 55 57  1  0      
 57 58  1  0      
 58 59  1  0      
 59 60  1  0      
 60 61  1  0      
 61 62  1  0      
 62 63  1  0      
 61 64  1  0      
 64 65  1  0      
 64 66  1  0      
 66 67  1  0      
 66 68  1  0      
 59 68  1  0      
 68 69  1  0      
 57 70  1  0      
 50 70  1  0      
 70 71  1  0      
 28 72  1  0      
 72 73  1  0      
 72 74  1  0      
 23 74  1  0      
 74 75  1  0      
 21 76  1  0      
 76 77  1  0      
 76 78  1  0      
 78 79  1  0      
 19 79  1  0      
 79 80  1  0      
 79 81  1  0      
 16 81  1  0      
 81 82  1  0      
 82 83  1  0      
 83 84  1  0      
  3 84  1  0      
 15 84  1  0      
 84 85  1  0      
M  END
>  <Bioactivity>
Digitonin is a steroidal saponin (saraponin) obtained from the foxglove plant Digitalis purpurea. It's aglycone is digitogenin, a spirostan steroid. It has been investigated as a detergent, as it effe
ctively water-solubilizes lipids.

>  <CAS>
11024-24-1

>  <Col>
3

>  <Formula>
C56H92O29

>  <ID>
T2721

>  <Index>
212

>  <MOLENAME>
Digitonin

>  <MolWt>
1229.34

>  <Pathways>
Others

>  <Plate>
PLATE 003

>  <QR code>
1151476989

>  <Receptor>
Others

>  <Reference>
1. Frenkel N, et al. J Phys Chem B. 2014 Dec 18;118(50):14632-9.

>  <Row>
F

>  <SMILES>
CC1C2C(OC11CCC(C)CO1)C(O)C1C3CCC4CC(OC5OC(CO)C(OC6OC(CO)C(O)C(OC7OCC(O)C(O)C7O)C6OC6OC(CO)C(O)C(OC7OC(CO)C(O)C(O)C7O)C6O)C(O)C5O)C(O)CC4(C)C3CCC21C

>  <Target>
Others

>  <Weight>
10.3mg

$$$$
Lab-1.sdf
  ChemDraw05232018482D

 18 20  0  0  0  0  0  0  0  0999 V2000
   -1.3439    0.0000    0.0000 C   0  0  0  0  0  0  0  0  0  0  0  0
   -0.8383    0.0000    0.0000 C   0  0  0  0  0  0  0  0  0  0  0  0
   -0.4484    0.0000    0.0000 C   0  0  0  0  0  0  0  0  0  0  0  0
    0.3761    0.0000    0.0000 C   0  0  0  0  0  0  0  0  0  0  0  0
    0.8107    0.0000    0.0000 C   0  0  0  0  0  0  0  0  0  0  0  0
    1.6353    0.0000    0.0000 C   0  0  0  0  0  0  0  0  0  0  0  0
    1.4668    0.0000    0.0000 C   0  0  0  0  0  0  0  0  0  0  0  0
    2.4014    0.0000    0.0000 C   0  0  0  0  0  0  0  0  0  0  0  0
    2.0700    0.0000    0.0000 C   0  0  0  0  0  0  0  0  0  0  0  0
    1.6800    0.0000    0.0000 C   0  0  0  0  0  0  0  0  0  0  0  0
    0.8554    0.0000    0.0000 C   0  0  0  0  0  0  0  0  0  0  0  0
    0.4208    0.0000    0.0000 C   0  0  0  0  0  0  0  0  0  0  0  0
    0.0308    0.0000    0.0000 C   0  0  0  0  0  0  0  0  0  0  0  0
   -0.4037    0.0000    0.0000 C   0  0  0  0  0  0  0  0  0  0  0  0
   -0.9364    0.0000    0.0000 C   0  0  0  0  0  0  0  0  0  0  0  0
   -1.7001    0.0000    0.0000 C   0  0  0  0  0  0  0  0  0  0  0  0
   -2.4014    0.0000    0.0000 O   0  0  0  0  0  0  0  0  0  0  0  0
   -1.6396    0.0000    0.0000 O   0  0  0  0  0  0  0  0  0  0  0  0
  1  2  1  0      
  2  3  1  0      
  3  4  1  0      
  4  5  1  0      
  5  6  1  0      
  6  7  1  0      
  6  8  1  0      
  6  9  1  0      
  9 10  1  0      
 10 11  1  0      
 11 12  1  0      
  5 12  1  0      
 12 13  1  0      
 12 14  1  0      
  2 14  1  0      
 14 15  1  0      
 15 16  1  0      
 16 17  2  0      
 16 18  1  0      
  2 18  1  0      
M  END
>  <Bioactivity>
Sclareolide is a sesquiterpene lactone natural product derived from various plant sources including Salvia sclarea, Salvia yosgadensis, and cigar tobacco. It is a close analog of sclareol, a plant ant
ifungal compound.

>  <CAS>
564-20-5

>  <Col>
4

>  <Formula>
C16H26O2

>  <ID>
T2904

>  <Index>
213

>  <MOLENAME>
Sclareolide

>  <MolWt>
250.38

>  <Pathways>
Others

>  <Plate>
PLATE 003

>  <QR code>
1151476990

>  <Receptor>
Others

>  <Reference>
1. Jasinski M, et al. Plant Cell, 2001, 13(5), 1095-1107.

>  <Row>
F

>  <SMILES>
CC12CCC3C(C)(C)CCCC3(C)C1CC(=O)O2

>  <Target>
Others

>  <Weight>
10.4mg

$$$$
Lab-1.sdf
  ChemDraw05232018482D

 17 19  0  0  0  0  0  0  0  0999 V2000
    0.3571    0.0000    0.0000 O   0  0  0  0  0  0  0  0  0  0  0  0
    0.3571    0.0000    0.0000 C   0  0  0  0  0  0  0  0  0  0  0  0
   -0.3573    0.0000    0.0000 C   0  0  0  0  0  0  0  0  0  0  0  0
   -0.3573    0.0000    0.0000 C   0  0  0  0  0  0  0  0  0  0  0  0
    0.3571    0.0000    0.0000 O   0  0  0  0  0  0  0  0  0  0  0  0
    1.0716    0.0000    0.0000 C   0  0  0  0  0  0  0  0  0  0  0  0
    1.7861    0.0000    0.0000 C   0  0  0  0  0  0  0  0  0  0  0  0
    2.5006    0.0000    0.0000 C   0  0  0  0  0  0  0  0  0  0  0  0
    2.5006    0.0000    0.0000 C   0  0  0  0  0  0  0  0  0  0  0  0
    1.7861    0.0000    0.0000 C   0  0  0  0  0  0  0  0  0  0  0  0
    1.0716    0.0000    0.0000 C   0  0  0  0  0  0  0  0  0  0  0  0
   -1.0718    0.0000    0.0000 C   0  0  0  0  0  0  0  0  0  0  0  0
   -1.7862    0.0000    0.0000 C   0  0  0  0  0  0  0  0  0  0  0  0
   -2.5006    0.0000    0.0000 C   0  0  0  0  0  0  0  0  0  0  0  0
   -2.5006    0.0000    0.0000 C   0  0  0  0  0  0  0  0  0  0  0  0
   -1.7862    0.0000    0.0000 C   0  0  0  0  0  0  0  0  0  0  0  0
   -1.0718    0.0000    0.0000 C   0  0  0  0  0  0  0  0  0  0  0  0
  1  2  2  0      
  2  3  1  0      
  3  4  2  0      
  4  5  1  0      
  5  6  1  0      
  6  7  2  0      
  7  8  1  0      
  8  9  2  0      
  9 10  1  0      
 10 11  2  0      
  2 11  1  0      
  6 11  1  0      
  4 12  1  0      
 12 13  2  0      
 13 14  1  0      
 14 15  2  0      
 15 16  1  0      
 16 17  2  0      
 12 17  1  0      
M  END
>  <Bioactivity>
Flavons have effects on CYP (P450) activity which are enzymes that metabolize most drugs in the body.

>  <CAS>
525-82-6

>  <Col>
5

>  <Formula>
C15H10O2

>  <ID>
T2876

>  <Index>
214

>  <MOLENAME>
Flavone

>  <MolWt>
222.25

>  <Pathways>
Immunology/Inflammation

>  <Plate>
PLATE 003

>  <QR code>
1151476991

>  <Receptor>
NOS

>  <Reference>
1. Zhu W, et al. Biochem Biophys Res Commun. 2015 Mar 13;458(3):590-5. 

>  <Row>
F

>  <SMILES>
O=C1C=C(OC2=CC=CC=C12)C1=CC=CC=C1

>  <Target>
Others

>  <Weight>
10.2mg

$$$$
Lab-1.sdf
  ChemDraw05232018482D

 17 15  0  0  0  0  0  0  0  0999 V2000
   -0.6069    0.0000    0.0000 O   0  0  0  0  0  0  0  0  0  0  0  0
    1.7501    0.0000    0.0000 O   0  0  0  0  0  0  0  0  0  0  0  0
   -1.7501    0.0000    0.0000 N   0  0  0  0  0  0  0  0  0  0  0  0
   -1.0356    0.0000    0.0000 C   0  0  0  0  0  0  0  0  0  0  0  0
   -0.3211    0.0000    0.0000 C   0  0  0  0  0  0  0  0  0  0  0  0
   -0.3211    0.0000    0.0000 C   0  0  0  0  0  0  0  0  0  0  0  0
    0.3933    0.0000    0.0000 C   0  0  0  0  0  0  0  0  0  0  0  0
    0.3933    0.0000    0.0000 C   0  0  0  0  0  0  0  0  0  0  0  0
    1.1077    0.0000    0.0000 I   0  0  0  0  0  0  0  0  0  0  0  0
   -0.3211    0.0000    0.0000 C   0  0  0  0  0  0  0  0  0  0  0  0
   -0.3211    0.0000    0.0000 O   0  0  0  0  0  0  0  0  0  0  0  0
   -1.0356    0.0000    0.0000 C   0  0  0  0  0  0  0  0  0  0  0  0
   -1.7501    0.0000    0.0000 I   0  0  0  0  0  0  0  0  0  0  0  0
   -1.0356    0.0000    0.0000 C   0  0  0  0  0  0  0  0  0  0  0  0
   -1.0356    0.0000    0.0000 C   0  0  0  0  0  0  0  0  0  0  0  0
   -1.7501    0.0000    0.0000 O   0  0  0  0  0  0  0  0  0  0  0  0
   -0.3211    0.0000    0.0000 O   0  0  0  0  0  0  0  0  0  0  0  0
  3  4  1  0      
  4  5  1  0      
  5  6  1  0      
  6  7  2  0      
  7  8  1  0      
  8  9  1  0      
  8 10  2  0      
 10 11  1  0      
 10 12  1  0      
 12 13  1  0      
 12 14  2  0      
  6 14  1  0      
  4 15  1  0      
 15 16  1  0      
 15 17  2  0      
M  END
>  <Bioactivity>
3,5-Diiodotyrosine is a product from the iodination of MONOIODOTYROSINE. In the biosynthesis of thyroid hormones, diiodotyrosine residues are coupled with other monoiodotyrosine or diiodotyrosine resi
dues to form T4 or T3 thyroid hormones?

>  <CAS>
18835-59-1

>  <Col>
6

>  <Formula>
C9H13I2NO5

>  <ID>
T2760

>  <Index>
215

>  <MOLENAME>
3,5-Diiodotyrosine Dihydrate

>  <MolWt>
469.02

>  <Pathways>
Others

>  <Plate>
PLATE 003

>  <QR code>
1151476992

>  <Receptor>
Others

>  <Reference>
1. Liu D, et al. Biol Trace Elem Res. 2015 Dec;168(2):447-52. 

>  <Row>
F

>  <SMILES>
O.O.NC(CC1=CC(I)=C(O)C(I)=C1)C(O)=O

>  <Target>
Others

>  <Weight>
10.1mg

$$$$
Lab-1.sdf
  ChemDraw05232018482D

 25 29  0  0  0  0  0  0  0  0999 V2000
   -1.7644    0.0000    0.0000 C   0  0  0  0  0  0  0  0  0  0  0  0
   -1.3067    0.0000    0.0000 C   0  0  0  0  0  0  0  0  0  0  0  0
   -0.7550    0.0000    0.0000 C   0  0  0  0  0  0  0  0  0  0  0  0
   -0.0417    0.0000    0.0000 C   0  0  0  0  0  0  0  0  0  0  0  0
    0.2410    0.0000    0.0000 C   0  0  0  0  0  0  0  0  0  0  0  0
    0.9846    0.0000    0.0000 O   0  0  0  0  0  0  0  0  0  0  0  0
   -0.3808    0.0000    0.0000 O   0  0  0  0  0  0  0  0  0  0  0  0
    0.5678    0.0000    0.0000 C   0  0  0  0  0  0  0  0  0  0  0  0
    1.2097    0.0000    0.0000 C   0  0  0  0  0  0  0  0  0  0  0  0
    1.9471    0.0000    0.0000 C   0  0  0  0  0  0  0  0  0  0  0  0
    2.7065    0.0000    0.0000 C   0  0  0  0  0  0  0  0  0  0  0  0
    1.8009    0.0000    0.0000 C   0  0  0  0  0  0  0  0  0  0  0  0
    2.5849    0.0000    0.0000 O   0  0  0  0  0  0  0  0  0  0  0  0
    1.1711    0.0000    0.0000 C   0  0  0  0  0  0  0  0  0  0  0  0
    1.4152    0.0000    0.0000 C   0  0  0  0  0  0  0  0  0  0  0  0
    0.5928    0.0000    0.0000 C   0  0  0  0  0  0  0  0  0  0  0  0
    0.1651    0.0000    0.0000 C   0  0  0  0  0  0  0  0  0  0  0  0
   -0.6110    0.0000    0.0000 C   0  0  0  0  0  0  0  0  0  0  0  0
   -0.2366    0.0000    0.0000 O   0  0  0  0  0  0  0  0  0  0  0  0
   -0.5462    0.0000    0.0000 C   0  0  0  0  0  0  0  0  0  0  0  0
   -0.3792    0.0000    0.0000 O   0  0  0  0  0  0  0  0  0  0  0  0
   -1.3876    0.0000    0.0000 C   0  0  0  0  0  0  0  0  0  0  0  0
   -1.9815    0.0000    0.0000 C   0  0  0  0  0  0  0  0  0  0  0  0
   -1.9455    0.0000    0.0000 C   0  0  0  0  0  0  0  0  0  0  0  0
   -2.7065    0.0000    0.0000 O   0  0  0  0  0  0  0  0  0  0  0  0
  1  2  1  0      
  2  3  1  0      
  3  4  1  0      
  4  5  1  0      
  5  6  1  0      
  5  7  2  0      
  4  8  1  0      
  8  9  1  0      
  9 10  1  0      
 10 11  2  0      
 10 12  1  0      
 12 13  1  0      
 12 14  1  0      
  8 14  1  0      
 12 15  1  0      
 15 16  1  0      
 16 17  1  0      
  8 17  1  0      
 17 18  1  0      
  3 18  1  0      
 18 19  1  0      
 19 20  1  0      
  2 20  1  0      
 20 21  2  0      
 18 22  1  0      
 22 23  2  0      
 23 24  1  0      
  2 24  1  0      
 24 25  1  0      
M  END
>  <Bioactivity>
Gibberellic acid (also called Gibberellin A3, GA, and GA3) is a hormone found in plants and fungi.

>  <CAS>
77-06-5

>  <Col>
7

>  <Formula>
C19H22O6

>  <ID>
T2955

>  <Index>
216

>  <MOLENAME>
Gibberellic acid 

>  <MolWt>
346.38

>  <Pathways>
Endocrinology/ Hormones

>  <Plate>
PLATE 003

>  <QR code>
1151476993

>  <Receptor>
steroidogenesis

>  <Reference>
1. Premalatha R, et al. Andrologia. 2014 Oct;46(8):902-9. 

>  <Row>
F

>  <SMILES>
CC12C3C(C(O)=O)C45CC(=C)C(O)(C4)CCC5C3(OC1=O)C=CC2O

>  <Target>
Others

>  <Weight>
10.4mg

$$$$
Lab-1.sdf
  ChemDraw05232018482D

 34 33  0  0  0  0  0  0  0  0999 V2000
   -2.9032    0.0000    0.0000 O   0  0  0  0  0  0  0  0  0  0  0  0
    1.9618    0.0000    0.0000 Na  0  3  0  0  0  0  0  0  0  0  0  0
    0.3082    0.0000    0.0000 Na  0  3  0  0  0  0  0  0  0  0  0  0
    2.1887    0.0000    0.0000 N   0  0  0  0  0  0  0  0  0  0  0  0
    2.1887    0.0000    0.0000 C   0  0  0  0  0  0  0  0  0  0  0  0
    2.9032    0.0000    0.0000 N   0  0  0  0  0  0  0  0  0  0  0  0
    2.9032    0.0000    0.0000 C   0  0  0  0  0  0  0  0  0  0  0  0
    2.1887    0.0000    0.0000 N   0  0  0  0  0  0  0  0  0  0  0  0
    1.4742    0.0000    0.0000 C   0  0  0  0  0  0  0  0  0  0  0  0
    1.4742    0.0000    0.0000 C   0  0  0  0  0  0  0  0  0  0  0  0
    0.6896    0.0000    0.0000 N   0  0  0  0  0  0  0  0  0  0  0  0
    0.2047    0.0000    0.0000 C   0  0  0  0  0  0  0  0  0  0  0  0
    0.6896    0.0000    0.0000 N   0  0  0  0  0  0  0  0  0  0  0  0
    0.4347    0.0000    0.0000 C   0  0  0  0  0  0  0  0  0  0  0  0
    0.9196    0.0000    0.0000 O   0  0  0  0  0  0  0  0  0  0  0  0
    0.4347    0.0000    0.0000 C   0  0  0  0  0  0  0  0  0  0  0  0
    0.6896    0.0000    0.0000 C   0  0  0  0  0  0  0  0  0  0  0  0
    0.1376    0.0000    0.0000 O   0  0  0  0  0  0  0  0  0  0  0  0
    0.3925    0.0000    0.0000 P   0  0  0  0  0  0  0  0  0  0  0  0
    1.1771    0.0000    0.0000 O   0  5  0  0  0  0  0  0  0  0  0  0
   -0.3922    0.0000    0.0000 O   0  0  0  0  0  0  0  0  0  0  0  0
    0.6475    0.0000    0.0000 O   0  0  0  0  0  0  0  0  0  0  0  0
    0.0954    0.0000    0.0000 P   0  0  0  0  0  0  0  0  0  0  0  0
    0.7085    0.0000    0.0000 O   0  0  0  0  0  0  0  0  0  0  0  0
   -0.5178    0.0000    0.0000 O   0  0  0  0  0  0  0  0  0  0  0  0
   -0.4567    0.0000    0.0000 O   0  0  0  0  0  0  0  0  0  0  0  0
   -0.2018    0.0000    0.0000 P   0  0  0  0  0  0  0  0  0  0  0  0
   -0.9864    0.0000    0.0000 O   0  0  0  0  0  0  0  0  0  0  0  0
    0.0533    0.0000    0.0000 O   0  5  0  0  0  0  0  0  0  0  0  0
    0.5830    0.0000    0.0000 O   0  0  0  0  0  0  0  0  0  0  0  0
   -0.3500    0.0000    0.0000 C   0  0  0  0  0  0  0  0  0  0  0  0
   -1.0175    0.0000    0.0000 O   0  0  0  0  0  0  0  0  0  0  0  0
   -0.3500    0.0000    0.0000 C   0  0  0  0  0  0  0  0  0  0  0  0
   -1.0175    0.0000    0.0000 O   0  0  0  0  0  0  0  0  0  0  0  0
  4  5  1  0      
  5  6  2  0      
  6  7  1  0      
  7  8  2  0      
  8  9  1  0      
  9 10  2  0      
  5 10  1  0      
 10 11  1  0      
 11 12  2  0      
 12 13  1  0      
  9 13  1  0      
 13 14  1  0      
 14 15  1  0      
 15 16  1  0      
 16 17  1  0      
 17 18  1  0      
 18 19  1  0      
 19 20  1  0      
 19 21  2  0      
 19 22  1  0      
 22 23  1  0      
 23 24  1  0      
 23 25  2  0      
 23 26  1  0      
 26 27  1  0      
 27 28  1  0      
 27 29  1  0      
 27 30  2  0      
 16 31  1  0      
 31 32  1  0      
 31 33  1  0      
 14 33  1  0      
 33 34  1  0      
M  CHG  4   2   1   3   1  20  -1  29  -1
M  END
>  <Bioactivity>
Adenosine triphosphate (ATP) is a nucleoside triphosphate used in cells as a coenzyme often called the "molecular unit of currency" of intracellular energy transfer.

>  <CAS>
34369-07-8

>  <Col>
8

>  <Formula>
C10H14N5Na2O13P3

>  <ID>
T2812

>  <Index>
217

>  <MOLENAME>
Adenosine disodium triphosphate 

>  <MolWt>
551.15

>  <Pathways>
Others

>  <Plate>
PLATE 003

>  <QR code>
1151476994

>  <Receptor>
Others

>  <Reference>
1. Shan G, et al. Se Pu. 2014 Nov;32(11):1275-9. Chinese.

>  <Row>
F

>  <SMILES>
O.[Na+].[Na+].NC1=NC=NC2=C1N=CN2C1OC(COP([O-])(=O)OP(O)(=O)OP(O)([O-])=O)C(O)C1O

>  <Target>
Others

>  <Weight>
10.3mg

$$$$
Lab-1.sdf
  ChemDraw05232018482D

 12 11  0  0  0  0  0  0  0  0999 V2000
   -2.2502    0.0000    0.0000 Br  0  0  0  0  0  0  0  0  0  0  0  0
    0.8213    0.0000    0.0000 C   0  0  0  0  0  0  0  0  0  0  0  0
    0.8213    0.0000    0.0000 O   0  0  0  0  0  0  0  0  0  0  0  0
    1.5358    0.0000    0.0000 C   0  0  0  0  0  0  0  0  0  0  0  0
    2.2502    0.0000    0.0000 O   0  0  0  0  0  0  0  0  0  0  0  0
    1.5358    0.0000    0.0000 C   0  0  0  0  0  0  0  0  0  0  0  0
    2.2502    0.0000    0.0000 C   0  0  0  0  0  0  0  0  0  0  0  0
    2.2502    0.0000    0.0000 C   0  0  0  0  0  0  0  0  0  0  0  0
    1.5358    0.0000    0.0000 C   0  0  0  0  0  0  0  0  0  0  0  0
    0.8213    0.0000    0.0000 N   0  0  0  0  0  0  0  0  0  0  0  0
    0.1068    0.0000    0.0000 C   0  0  0  0  0  0  0  0  0  0  0  0
    0.8213    0.0000    0.0000 C   0  0  0  0  0  0  0  0  0  0  0  0
  2  3  1  0      
  3  4  1  0      
  4  5  2  0      
  4  6  1  0      
  6  7  2  0      
  7  8  1  0      
  8  9  1  0      
  9 10  1  0      
 10 11  1  0      
 10 12  1  0      
  6 12  1  0      
M  END
>  <Bioactivity>
Arecoline Hydrobromide is a muscarinic acetylcholine receptor agonist.

>  <CAS>
300-08-3

>  <Col>
9

>  <Formula>
C8H13NO2?HBr

>  <ID>
T2198

>  <Index>
218

>  <MOLENAME>
Arecoline HBr

>  <MolWt>
236.11

>  <Pathways>
Neuroscience

>  <Plate>
PLATE 003

>  <QR code>
1151476995

>  <Receptor>
Muscarinic AChR

>  <Reference>
1. Ghelardini, C., et al., M1 receptor activation is a requirement for arecoline analgesia. Farmaco, 2001. 56(5-7): p. 383-5.

>  <Row>
F

>  <SMILES>
Br.COC(=O)C1=CCCN(C)C1

>  <Target>
AChR antagonist

>  <Weight>
10.3mg

$$$$
Lab-1.sdf
  ChemDraw05232018482D

 26 29  0  0  0  0  0  0  0  0999 V2000
   -3.9158    0.0000    0.0000 C   0  0  0  0  0  0  0  0  0  0  0  0
   -3.3756    0.0000    0.0000 O   0  0  0  0  0  0  0  0  0  0  0  0
   -2.5654    0.0000    0.0000 C   0  0  0  0  0  0  0  0  0  0  0  0
   -2.0253    0.0000    0.0000 C   0  0  0  0  0  0  0  0  0  0  0  0
   -2.2954    0.0000    0.0000 O   0  0  0  0  0  0  0  0  0  0  0  0
   -1.7553    0.0000    0.0000 C   0  0  0  0  0  0  0  0  0  0  0  0
   -1.2152    0.0000    0.0000 C   0  0  0  0  0  0  0  0  0  0  0  0
   -0.9452    0.0000    0.0000 C   0  0  0  0  0  0  0  0  0  0  0  0
   -0.1350    0.0000    0.0000 C   0  0  0  0  0  0  0  0  0  0  0  0
    0.4052    0.0000    0.0000 C   0  0  0  0  0  0  0  0  0  0  0  0
    1.2153    0.0000    0.0000 C   0  0  0  0  0  0  0  0  0  0  0  0
    1.4853    0.0000    0.0000 C   0  0  0  0  0  0  0  0  0  0  0  0
    0.9452    0.0000    0.0000 C   0  0  0  0  0  0  0  0  0  0  0  0
    0.1351    0.0000    0.0000 N   0  0  0  0  0  0  0  0  0  0  0  0
   -0.4051    0.0000    0.0000 C   0  0  0  0  0  0  0  0  0  0  0  0
   -1.2152    0.0000    0.0000 C   0  0  0  0  0  0  0  0  0  0  0  0
   -1.4853    0.0000    0.0000 C   0  0  0  0  0  0  0  0  0  0  0  0
   -2.2954    0.0000    0.0000 C   0  0  0  0  0  0  0  0  0  0  0  0
    2.2955    0.0000    0.0000 C   0  0  0  0  0  0  0  0  0  0  0  0
    2.5655    0.0000    0.0000 O   0  0  0  0  0  0  0  0  0  0  0  0
    3.3756    0.0000    0.0000 C   0  0  0  0  0  0  0  0  0  0  0  0
    2.8356    0.0000    0.0000 C   0  0  0  0  0  0  0  0  0  0  0  0
    3.6458    0.0000    0.0000 O   0  0  0  0  0  0  0  0  0  0  0  0
    3.9158    0.0000    0.0000 C   0  0  0  0  0  0  0  0  0  0  0  0
    2.5655    0.0000    0.0000 C   0  0  0  0  0  0  0  0  0  0  0  0
    1.7554    0.0000    0.0000 C   0  0  0  0  0  0  0  0  0  0  0  0
  1  2  1  0      
  2  3  1  0      
  3  4  2  0      
  4  5  1  0      
  5  6  1  0      
  4  7  1  0      
  7  8  2  0      
  8  9  1  0      
  9 10  1  0      
 10 11  1  0      
 11 12  2  0      
 12 13  1  0      
 13 14  1  0      
  9 14  1  0      
 14 15  1  0      
 15 16  1  0      
 16 17  1  0      
  8 17  1  0      
 17 18  2  0      
  3 18  1  0      
 12 19  1  0      
 19 20  1  0      
 20 21  1  0      
 19 22  2  0      
 22 23  1  0      
 23 24  1  0      
 22 25  1  0      
 25 26  2  0      
 11 26  1  0      
M  END
>  <Bioactivity>
Tetrahydropalmatine, an active component isolated from corydalis (a Chinese herbal medicine), possesses analgesic effects.

>  <CAS>
2934-97-6

>  <Col>
10

>  <Formula>
C21H25NO4

>  <ID>
T2793

>  <Index>
219

>  <MOLENAME>
Tetrahydropalmatine

>  <MolWt>
355.44

>  <Pathways>
Others

>  <Plate>
PLATE 003

>  <QR code>
1151476996

>  <Receptor>
Others

>  <Reference>
1. XING Shu-Hua, et al. Acta Pharmacologica Sinica, 1994-01

>  <Row>
F

>  <SMILES>
COC1=C(OC)C=C2C3CC4=C(CN3CCC2=C1)C(OC)=C(OC)C=C4

>  <Target>
Others

>  <Weight>
9.9mg

$$$$
Lab-1.sdf
  ChemDraw05232018482D

 42 46  0  0  0  0  0  0  0  0999 V2000
   -1.2003    0.0000    0.0000 C   0  0  0  0  0  0  0  0  0  0  0  0
   -0.7786    0.0000    0.0000 C   0  0  0  0  0  0  0  0  0  0  0  0
    0.0463    0.0000    0.0000 O   0  0  0  0  0  0  0  0  0  0  0  0
   -1.1818    0.0000    0.0000 O   0  0  0  0  0  0  0  0  0  0  0  0
   -0.7601    0.0000    0.0000 C   0  0  0  0  0  0  0  0  0  0  0  0
   -1.3116    0.0000    0.0000 C   0  0  0  0  0  0  0  0  0  0  0  0
   -2.0383    0.0000    0.0000 C   0  0  0  0  0  0  0  0  0  0  0  0
   -2.7575    0.0000    0.0000 C   0  0  0  0  0  0  0  0  0  0  0  0
   -2.0630    0.0000    0.0000 C   0  0  0  0  0  0  0  0  0  0  0  0
   -2.7746    0.0000    0.0000 O   0  0  0  0  0  0  0  0  0  0  0  0
   -1.3134    0.0000    0.0000 C   0  0  0  0  0  0  0  0  0  0  0  0
   -0.5471    0.0000    0.0000 C   0  0  0  0  0  0  0  0  0  0  0  0
   -0.2800    0.0000    0.0000 O   0  0  0  0  0  0  0  0  0  0  0  0
    0.3127    0.0000    0.0000 C   0  0  0  0  0  0  0  0  0  0  0  0
    0.7258    0.0000    0.0000 O   0  0  0  0  0  0  0  0  0  0  0  0
    0.3140    0.0000    0.0000 C   0  0  0  0  0  0  0  0  0  0  0  0
   -0.5109    0.0000    0.0000 O   0  0  0  0  0  0  0  0  0  0  0  0
    0.7271    0.0000    0.0000 C   0  0  0  0  0  0  0  0  0  0  0  0
    1.5521    0.0000    0.0000 C   0  0  0  0  0  0  0  0  0  0  0  0
    1.9653    0.0000    0.0000 C   0  0  0  0  0  0  0  0  0  0  0  0
    1.5534    0.0000    0.0000 C   0  0  0  0  0  0  0  0  0  0  0  0
    0.7284    0.0000    0.0000 C   0  0  0  0  0  0  0  0  0  0  0  0
    0.3153    0.0000    0.0000 C   0  0  0  0  0  0  0  0  0  0  0  0
    0.8613    0.0000    0.0000 C   0  0  0  0  0  0  0  0  0  0  0  0
    1.6197    0.0000    0.0000 C   0  0  0  0  0  0  0  0  0  0  0  0
    2.1142    0.0000    0.0000 C   0  0  0  0  0  0  0  0  0  0  0  0
    2.7746    0.0000    0.0000 O   0  0  0  0  0  0  0  0  0  0  0  0
    2.2801    0.0000    0.0000 C   0  0  0  0  0  0  0  0  0  0  0  0
    2.1820    0.0000    0.0000 C   0  0  0  0  0  0  0  0  0  0  0  0
    1.4236    0.0000    0.0000 C   0  0  0  0  0  0  0  0  0  0  0  0
    1.3255    0.0000    0.0000 O   0  0  0  0  0  0  0  0  0  0  0  0
    0.7632    0.0000    0.0000 C   0  0  0  0  0  0  0  0  0  0  0  0
    0.7633    0.0000    0.0000 C   0  0  0  0  0  0  0  0  0  0  0  0
    0.0809    0.0000    0.0000 C   0  0  0  0  0  0  0  0  0  0  0  0
    0.2677    0.0000    0.0000 O   0  0  0  0  0  0  0  0  0  0  0  0
    1.1098    0.0000    0.0000 O   0  0  0  0  0  0  0  0  0  0  0  0
    1.4166    0.0000    0.0000 C   0  0  0  0  0  0  0  0  0  0  0  0
    2.2332    0.0000    0.0000 C   0  0  0  0  0  0  0  0  0  0  0  0
    0.9067    0.0000    0.0000 O   0  0  0  0  0  0  0  0  0  0  0  0
   -0.8718    0.0000    0.0000 C   0  0  0  0  0  0  0  0  0  0  0  0
   -0.0553    0.0000    0.0000 C   0  0  0  0  0  0  0  0  0  0  0  0
   -0.3705    0.0000    0.0000 C   0  0  0  0  0  0  0  0  0  0  0  0
  1  2  1  0      
  2  3  2  0      
  2  4  1  0      
  4  5  1  0      
  5  6  1  0      
  6  7  2  0      
  7  8  1  0      
  7  9  1  0      
  9 10  1  0      
  9 11  1  0      
 11 12  1  0      
 12 13  1  0      
 12 14  1  0      
 14 15  1  0      
 15 16  1  0      
 16 17  2  0      
 16 18  1  0      
 18 19  2  0      
 19 20  1  0      
 20 21  2  0      
 21 22  1  0      
 22 23  2  0      
 18 23  1  0      
 14 24  1  0      
 24 25  1  0      
 25 26  1  0      
 26 27  1  0      
 27 28  1  0      
 25 28  1  0      
 28 29  1  0      
 29 30  1  0      
 30 31  1  0      
 30 32  1  0      
 24 32  1  0      
 32 33  1  0      
 32 34  1  0      
  5 34  1  0      
 34 35  2  0      
 25 36  1  0      
 36 37  1  0      
 37 38  1  0      
 37 39  2  0      
 12 40  1  0      
  6 40  1  0      
 40 41  1  0      
 40 42  1  0      
M  END
>  <Bioactivity>
Baccatin III is an isolate of the Pacific yew tree (Taxus brevifolia) and related species. Baccatin III is a precursor to the anti-Y drug paclitaxel (Taxol).

>  <CAS>
27548-93-2

>  <Col>
11

>  <Formula>
C31H38O11

>  <ID>
T2788

>  <Index>
220

>  <MOLENAME>
Baccatin III

>  <MolWt>
586.64

>  <Pathways>
Others

>  <Plate>
PLATE 003

>  <QR code>
1151476997

>  <Receptor>
Others

>  <Reference>
1. Han F, et al. J Sci Food Agric, 2014, 94: 2376?2383.

>  <Row>
F

>  <SMILES>
CC(=O)OC1C2=C(C)C(O)CC(O)(C(OC(=O)C3=CC=CC=C3)C3C4(COC4CC(O)C3(C)C1=O)OC(C)=O)C2(C)C

>  <Target>
Others

>  <Weight>
10.4mg

$$$$
Lab-1.sdf
  ChemDraw05232018482D

 26 30  0  0  0  0  0  0  0  0999 V2000
    1.9761    0.0000    0.0000 C   0  0  0  0  0  0  0  0  0  0  0  0
    2.4840    0.0000    0.0000 C   0  0  0  0  0  0  0  0  0  0  0  0
    2.1750    0.0000    0.0000 C   0  0  0  0  0  0  0  0  0  0  0  0
    1.4753    0.0000    0.0000 O   0  0  0  0  0  0  0  0  0  0  0  0
    2.9820    0.0000    0.0000 C   0  0  0  0  0  0  0  0  0  0  0  0
    3.5340    0.0000    0.0000 O   0  0  0  0  0  0  0  0  0  0  0  0
    3.2369    0.0000    0.0000 O   0  0  0  0  0  0  0  0  0  0  0  0
    2.6849    0.0000    0.0000 C   0  0  0  0  0  0  0  0  0  0  0  0
    1.8779    0.0000    0.0000 C   0  0  0  0  0  0  0  0  0  0  0  0
    1.6230    0.0000    0.0000 C   0  0  0  0  0  0  0  0  0  0  0  0
    0.8160    0.0000    0.0000 C   0  0  0  0  0  0  0  0  0  0  0  0
    0.2639    0.0000    0.0000 C   0  0  0  0  0  0  0  0  0  0  0  0
    0.5189    0.0000    0.0000 N   0  0  0  0  0  0  0  0  0  0  0  0
   -0.1486    0.0000    0.0000 C   0  0  0  0  0  0  0  0  0  0  0  0
   -0.8160    0.0000    0.0000 C   0  0  0  0  0  0  0  0  0  0  0  0
   -1.6230    0.0000    0.0000 C   0  0  0  0  0  0  0  0  0  0  0  0
   -2.1750    0.0000    0.0000 C   0  0  0  0  0  0  0  0  0  0  0  0
   -2.9820    0.0000    0.0000 C   0  0  0  0  0  0  0  0  0  0  0  0
   -3.5340    0.0000    0.0000 C   0  0  0  0  0  0  0  0  0  0  0  0
   -3.2791    0.0000    0.0000 C   0  0  0  0  0  0  0  0  0  0  0  0
   -2.4721    0.0000    0.0000 C   0  0  0  0  0  0  0  0  0  0  0  0
   -1.9201    0.0000    0.0000 C   0  0  0  0  0  0  0  0  0  0  0  0
   -1.1131    0.0000    0.0000 N   0  0  0  0  0  0  0  0  0  0  0  0
   -0.5611    0.0000    0.0000 C   0  0  0  0  0  0  0  0  0  0  0  0
    1.3259    0.0000    0.0000 C   0  0  0  0  0  0  0  0  0  0  0  0
    1.5808    0.0000    0.0000 O   0  0  0  0  0  0  0  0  0  0  0  0
  1  2  1  0      
  2  3  1  0      
  3  4  1  0      
  3  5  1  0      
  5  6  2  0      
  5  7  1  0      
  7  8  1  0      
  8  9  1  0      
  9 10  2  0      
  3 10  1  0      
 10 11  1  0      
 11 12  2  0      
 12 13  1  0      
 13 14  1  0      
 14 15  1  0      
 15 16  2  0      
 16 17  1  0      
 17 18  2  0      
 18 19  1  0      
 19 20  2  0      
 20 21  1  0      
 21 22  2  0      
 17 22  1  0      
 22 23  1  0      
 23 24  2  0      
 12 24  1  0      
 15 24  1  0      
 13 25  1  0      
  9 25  1  0      
 25 26  2  0      
M  END
>  <Bioactivity>
An alkaloid isolated from the stem wood of the Chinese tree, Camptotheca acuminata. This compound selectively inhibits the nuclear enzyme DNA TOPOISOMERASES, TYPE I. Several semisynthetic analogs of c
amptothecin have demonstrated antitumor activity. 

>  <CAS>
7689-03-4

>  <Col>
2

>  <Formula>
C20H16N2O4

>  <ID>
T1123

>  <Index>
221

>  <MOLENAME>
(+)-Camptothecin

>  <MolWt>
348.36

>  <Pathways>
DNA Damage/DNA Repair

>  <Plate>
PLATE 003

>  <QR code>
1151476985

>  <Receptor>
Topoisomerase I

>  <Reference>
1. Teicher BA. Biochem Pharmacol. 2007 Oct 22;.

>  <Row>
G

>  <SMILES>
CCC1(O)C(=O)OCC2=C1C=C1N(CC3=CC4=CC=CC=C4N=C13)C2=O

>  <Target>
Topoisomerase inhibitor

>  <Weight>
10.2mg

$$$$
Lab-1.sdf
  ChemDraw05232018482D

 10  9  0  0  0  0  0  0  0  0999 V2000
    1.0716    0.0000    0.0000 N   0  0  0  0  0  0  0  0  0  0  0  0
    1.0716    0.0000    0.0000 C   0  0  0  0  0  0  0  0  0  0  0  0
    0.3571    0.0000    0.0000 C   0  0  0  0  0  0  0  0  0  0  0  0
   -0.3572    0.0000    0.0000 S   0  0  0  0  0  0  0  0  0  0  0  0
   -1.0717    0.0000    0.0000 C   0  0  0  0  0  0  0  0  0  0  0  0
   -1.7862    0.0000    0.0000 C   0  0  0  0  0  0  0  0  0  0  0  0
   -2.5006    0.0000    0.0000 C   0  0  0  0  0  0  0  0  0  0  0  0
    1.7861    0.0000    0.0000 C   0  0  0  0  0  0  0  0  0  0  0  0
    2.5006    0.0000    0.0000 O   0  0  0  0  0  0  0  0  0  0  0  0
    1.7861    0.0000    0.0000 O   0  0  0  0  0  0  0  0  0  0  0  0
  1  2  1  0      
  2  3  1  0      
  3  4  1  0      
  4  5  1  0      
  5  6  1  0      
  6  7  2  0      
  2  8  1  0      
  8  9  1  0      
  8 10  2  0      
M  END
>  <Bioactivity>
S-Allyl cysteine (SAC) is an organic compound that is a natural constituent of fresh garlic. It is a derivative of the amino acid cysteine in which an allyl group has been added to the sulfur atom.

>  <CAS>
21593-77-1

>  <Col>
3

>  <Formula>
C6H11NO2S

>  <ID>
T2772

>  <Index>
222

>  <MOLENAME>
S-allyl-L-cysteine

>  <MolWt>
161.22

>  <Pathways>
Others

>  <Plate>
PLATE 003

>  <QR code>
1151476984

>  <Receptor>
Others

>  <Reference>
1. Xu X, et al. J Food Sci Technol. 2015 Mar;52(3):1724-9. 

>  <Row>
G

>  <SMILES>
NC(CSCC=C)C(O)=O

>  <Target>
Others

>  <Weight>
9.9mg

$$$$
Lab-1.sdf
  ChemDraw05232018482D

 29 33  0  0  0  0  0  0  0  0999 V2000
    4.4639    0.0000    0.0000 C   0  0  0  0  0  0  0  0  0  0  0  0
    4.0406    0.0000    0.0000 O   0  0  0  0  0  0  0  0  0  0  0  0
    3.2157    0.0000    0.0000 C   0  0  0  0  0  0  0  0  0  0  0  0
    2.7924    0.0000    0.0000 C   0  0  0  0  0  0  0  0  0  0  0  0
    3.1940    0.0000    0.0000 O   0  0  0  0  0  0  0  0  0  0  0  0
    2.7707    0.0000    0.0000 C   0  0  0  0  0  0  0  0  0  0  0  0
    1.9675    0.0000    0.0000 C   0  0  0  0  0  0  0  0  0  0  0  0
    1.5659    0.0000    0.0000 C   0  0  0  0  0  0  0  0  0  0  0  0
    0.7410    0.0000    0.0000 C   0  0  0  0  0  0  0  0  0  0  0  0
    0.3394    0.0000    0.0000 C   0  0  0  0  0  0  0  0  0  0  0  0
    0.7627    0.0000    0.0000 C   0  0  0  0  0  0  0  0  0  0  0  0
    1.5876    0.0000    0.0000 O   0  0  0  0  0  0  0  0  0  0  0  0
    1.9892    0.0000    0.0000 C   0  0  0  0  0  0  0  0  0  0  0  0
    2.8141    0.0000    0.0000 C   0  0  0  0  0  0  0  0  0  0  0  0
   -0.4856    0.0000    0.0000 O   0  0  0  0  0  0  0  0  0  0  0  0
   -0.9089    0.0000    0.0000 C   0  0  0  0  0  0  0  0  0  0  0  0
   -0.5073    0.0000    0.0000 C   0  0  0  0  0  0  0  0  0  0  0  0
   -0.9307    0.0000    0.0000 C   0  0  0  0  0  0  0  0  0  0  0  0
   -1.7556    0.0000    0.0000 C   0  0  0  0  0  0  0  0  0  0  0  0
   -2.1571    0.0000    0.0000 C   0  0  0  0  0  0  0  0  0  0  0  0
   -1.7338    0.0000    0.0000 C   0  0  0  0  0  0  0  0  0  0  0  0
   -2.2765    0.0000    0.0000 C   0  0  0  0  0  0  0  0  0  0  0  0
   -3.0352    0.0000    0.0000 C   0  0  0  0  0  0  0  0  0  0  0  0
   -2.9614    0.0000    0.0000 O   0  0  0  0  0  0  0  0  0  0  0  0
   -3.7433    0.0000    0.0000 C   0  0  0  0  0  0  0  0  0  0  0  0
   -4.4639    0.0000    0.0000 C   0  0  0  0  0  0  0  0  0  0  0  0
   -3.7307    0.0000    0.0000 C   0  0  0  0  0  0  0  0  0  0  0  0
    0.3177    0.0000    0.0000 C   0  0  0  0  0  0  0  0  0  0  0  0
    0.7193    0.0000    0.0000 O   0  0  0  0  0  0  0  0  0  0  0  0
  1  2  1  0      
  2  3  1  0      
  3  4  2  0      
  4  5  1  0      
  5  6  1  0      
  4  7  1  0      
  7  8  2  0      
  8  9  1  0      
  9 10  1  0      
 10 11  1  0      
 11 12  1  0      
 12 13  1  0      
  8 13  1  0      
 13 14  2  0      
  3 14  1  0      
 10 15  1  0      
 15 16  1  0      
 16 17  2  0      
 17 18  1  0      
 18 19  2  0      
 19 20  1  0      
 20 21  2  0      
 16 21  1  0      
 21 22  1  0      
 22 23  1  0      
 23 24  1  0      
 20 24  1  0      
 23 25  1  0      
 25 26  1  0      
 25 27  2  0      
 17 28  1  0      
  9 28  1  0      
 28 29  2  0      
M  END
>  <Bioactivity>
Rotenone is an odorless, colorless, crystalline ketonic chemical compound used as a broad-spectrum insecticide, piscicide, and pesticide. It occurs naturally in the seeds and stems of several plants, 
such as the jicama vine plant, and the roots of several members of Fabaceae. It was the first described member of the family of chemical compounds known as rotenoids.

>  <CAS>
83-79-4

>  <Col>
4

>  <Formula>
C23H22O6

>  <ID>
T2970

>  <Index>
223

>  <MOLENAME>
Rotenone

>  <MolWt>
394.43

>  <Pathways>
Apoptosis

>  <Plate>
PLATE 003

>  <QR code>
1151476983

>  <Receptor>
p53; NAPDH

>  <Reference>
1. Feng Y, et al. J Neurochem. 2015 Aug;134(4):668-76. 

>  <Row>
G

>  <SMILES>
COC1=C(OC)C=C2C3C(COC2=C1)OC1=C(C=CC2=C1CC(O2)C(C)=C)C3=O

>  <Target>
p53 activator

>  <Weight>
10.3mg

$$$$
Lab-1.sdf
  ChemDraw05232018482D

 33 36  0  0  0  0  0  0  0  0999 V2000
    0.6543    0.0000    0.0000 C   0  0  0  0  0  0  0  0  0  0  0  0
    0.6543    0.0000    0.0000 C   0  0  0  0  0  0  0  0  0  0  0  0
    1.3688    0.0000    0.0000 C   0  0  0  0  0  0  0  0  0  0  0  0
    2.0833    0.0000    0.0000 C   0  0  0  0  0  0  0  0  0  0  0  0
    2.7977    0.0000    0.0000 C   0  0  0  0  0  0  0  0  0  0  0  0
    2.7977    0.0000    0.0000 O   0  0  0  0  0  0  0  0  0  0  0  0
    3.5122    0.0000    0.0000 N   0  0  0  0  0  0  0  0  0  0  0  0
    4.2267    0.0000    0.0000 C   0  0  0  0  0  0  0  0  0  0  0  0
    4.9411    0.0000    0.0000 C   0  0  0  0  0  0  0  0  0  0  0  0
    5.6556    0.0000    0.0000 O   0  5  0  0  0  0  0  0  0  0  0  0
    4.9411    0.0000    0.0000 O   0  0  0  0  0  0  0  0  0  0  0  0
   -0.0601    0.0000    0.0000 C   0  0  0  0  0  0  0  0  0  0  0  0
   -0.1464    0.0000    0.0000 C   0  0  0  0  0  0  0  0  0  0  0  0
   -0.9534    0.0000    0.0000 C   0  0  0  0  0  0  0  0  0  0  0  0
   -1.3659    0.0000    0.0000 C   0  0  0  0  0  0  0  0  0  0  0  0
   -2.1727    0.0000    0.0000 C   0  0  0  0  0  0  0  0  0  0  0  0
   -2.7248    0.0000    0.0000 C   0  0  0  0  0  0  0  0  0  0  0  0
   -2.4698    0.0000    0.0000 O   0  0  0  0  0  0  0  0  0  0  0  0
   -3.5317    0.0000    0.0000 C   0  0  0  0  0  0  0  0  0  0  0  0
   -3.7867    0.0000    0.0000 C   0  0  0  0  0  0  0  0  0  0  0  0
   -4.5936    0.0000    0.0000 C   0  0  0  0  0  0  0  0  0  0  0  0
   -4.8486    0.0000    0.0000 C   0  0  0  0  0  0  0  0  0  0  0  0
   -5.6556    0.0000    0.0000 O   0  0  0  0  0  0  0  0  0  0  0  0
   -4.2966    0.0000    0.0000 C   0  0  0  0  0  0  0  0  0  0  0  0
   -3.4896    0.0000    0.0000 C   0  0  0  0  0  0  0  0  0  0  0  0
   -3.2346    0.0000    0.0000 C   0  0  0  0  0  0  0  0  0  0  0  0
   -2.6826    0.0000    0.0000 C   0  0  0  0  0  0  0  0  0  0  0  0
   -2.4277    0.0000    0.0000 C   0  0  0  0  0  0  0  0  0  0  0  0
   -1.8756    0.0000    0.0000 C   0  0  0  0  0  0  0  0  0  0  0  0
   -1.0688    0.0000    0.0000 C   0  0  0  0  0  0  0  0  0  0  0  0
   -0.5167    0.0000    0.0000 O   0  0  0  0  0  0  0  0  0  0  0  0
   -0.8138    0.0000    0.0000 C   0  0  0  0  0  0  0  0  0  0  0  0
   -0.2007    0.0000    0.0000 C   0  0  0  0  0  0  0  0  0  0  0  0
  1  2  1  0      
  2  3  1  0      
  3  4  1  0      
  4  5  1  0      
  5  6  2  0      
  5  7  1  0      
  7  8  1  0      
  8  9  1  0      
  9 10  1  0      
  9 11  2  0      
  2 12  1  0      
 12 13  1  0      
 13 14  1  0      
 14 15  1  0      
 15 16  1  0      
 16 17  1  0      
 17 18  1  0      
 17 19  1  0      
 19 20  1  0      
 20 21  1  0      
 21 22  1  0      
 22 23  1  0      
 22 24  1  0      
 24 25  1  0      
 25 26  1  0      
 20 26  1  0      
 26 27  1  0      
 26 28  1  0      
 16 28  1  0      
 28 29  1  0      
 29 30  1  0      
 30 31  1  0      
 30 32  1  0      
 12 32  1  0      
 15 32  1  0      
 32 33  1  0      
M  CHG  1  10  -1
M  END
>  <Bioactivity>
Glycocholic acid, or cholylglycine, is a crystalline bile acid involved in the emulsification of fats. It occurs as a sodium salt in the bile of mammals. It is a conjugate of cholic acid with glycine.
 Its anion is called glycocholate.

>  <CAS>
475-31-0

>  <Col>
5

>  <Formula>
C26H43NO6

>  <ID>
T2831

>  <Index>
224

>  <MOLENAME>
Glycocholic acid

>  <MolWt>
465.64

>  <Pathways>
Others

>  <Plate>
PLATE 003

>  <QR code>
1151476982

>  <Receptor>
Others

>  <Reference>
1. Zhang A, et al. Clin Chim Acta. 2013 Mar 15;418:86-90.

>  <Row>
G

>  <SMILES>
CC(CCC(=O)NCC([O-])=O)C1CCC2C3C(O)CC4CC(O)CCC4(C)C3CC(O)C12C

>  <Target>
Others

>  <Weight>
10.1mg

$$$$
Lab-1.sdf
  ChemDraw05232018482D

 13 13  0  0  0  0  0  0  0  0999 V2000
   -1.4289    0.0000    0.0000 C   0  0  0  0  0  0  0  0  0  0  0  0
   -0.7145    0.0000    0.0000 C   0  0  0  0  0  0  0  0  0  0  0  0
   -0.0001    0.0000    0.0000 O   0  0  0  0  0  0  0  0  0  0  0  0
   -0.7145    0.0000    0.0000 C   0  0  0  0  0  0  0  0  0  0  0  0
   -0.0001    0.0000    0.0000 C   0  0  0  0  0  0  0  0  0  0  0  0
   -0.0001    0.0000    0.0000 C   0  0  0  0  0  0  0  0  0  0  0  0
    0.7145    0.0000    0.0000 C   0  0  0  0  0  0  0  0  0  0  0  0
    1.4289    0.0000    0.0000 O   0  0  0  0  0  0  0  0  0  0  0  0
    0.7145    0.0000    0.0000 O   0  0  0  0  0  0  0  0  0  0  0  0
   -0.7145    0.0000    0.0000 C   0  0  0  0  0  0  0  0  0  0  0  0
   -0.7145    0.0000    0.0000 O   0  0  0  0  0  0  0  0  0  0  0  0
   -1.4289    0.0000    0.0000 C   0  0  0  0  0  0  0  0  0  0  0  0
   -1.4289    0.0000    0.0000 C   0  0  0  0  0  0  0  0  0  0  0  0
  1  2  1  0      
  2  3  2  0      
  2  4  1  0      
  4  5  2  0      
  5  6  1  0      
  6  7  1  0      
  7  8  1  0      
  7  9  2  0      
  6 10  2  0      
 10 11  1  0      
 10 12  1  0      
 12 13  2  0      
  4 13  1  0      
M  END
>  <Bioactivity>
Acetylsalicylic acid, also knows as aspirin, is an aminosalicylate anti-inflammatory drug used to treat inflammatory bowel disease, including ulcerative colitis, inflamed anus or rectum, and to mainta
in remission in Crohn's disease.

>  <CAS>
13110-96-8

>  <Col>
6

>  <Formula>
C9H8O4

>  <ID>
T2735

>  <Index>
225

>  <MOLENAME>
5-Acetylsalicylic acid

>  <MolWt>
180.16

>  <Pathways>
Others

>  <Plate>
PLATE 003

>  <QR code>
1151476981

>  <Receptor>
Others

>  <Reference>
1. Ulu N, et al. Turk J Med Sci. 2015;45(4):812-9.

>  <Row>
G

>  <SMILES>
CC(=O)C1=CC(C(O)=O)=C(O)C=C1

>  <Target>
Others

>  <Weight>
10.1mg

$$$$
Lab-1.sdf
  ChemDraw05232018482D

 30 33  0  0  0  0  0  0  0  0999 V2000
   -4.9411    0.0000    0.0000 C   0  0  0  0  0  0  0  0  0  0  0  0
   -4.2267    0.0000    0.0000 O   0  0  0  0  0  0  0  0  0  0  0  0
   -3.5123    0.0000    0.0000 C   0  0  0  0  0  0  0  0  0  0  0  0
   -3.5123    0.0000    0.0000 O   0  0  0  0  0  0  0  0  0  0  0  0
   -2.7977    0.0000    0.0000 C   0  0  0  0  0  0  0  0  0  0  0  0
   -2.0833    0.0000    0.0000 C   0  0  0  0  0  0  0  0  0  0  0  0
   -1.3688    0.0000    0.0000 C   0  0  0  0  0  0  0  0  0  0  0  0
   -1.3688    0.0000    0.0000 C   0  0  0  0  0  0  0  0  0  0  0  0
   -0.6544    0.0000    0.0000 C   0  0  0  0  0  0  0  0  0  0  0  0
   -0.5682    0.0000    0.0000 C   0  0  0  0  0  0  0  0  0  0  0  0
    0.2388    0.0000    0.0000 C   0  0  0  0  0  0  0  0  0  0  0  0
    0.6513    0.0000    0.0000 C   0  0  0  0  0  0  0  0  0  0  0  0
    1.4583    0.0000    0.0000 C   0  0  0  0  0  0  0  0  0  0  0  0
    2.0103    0.0000    0.0000 C   0  0  0  0  0  0  0  0  0  0  0  0
    1.7554    0.0000    0.0000 O   0  0  0  0  0  0  0  0  0  0  0  0
    2.8173    0.0000    0.0000 C   0  0  0  0  0  0  0  0  0  0  0  0
    3.0722    0.0000    0.0000 C   0  0  0  0  0  0  0  0  0  0  0  0
    3.8792    0.0000    0.0000 C   0  0  0  0  0  0  0  0  0  0  0  0
    4.1341    0.0000    0.0000 C   0  0  0  0  0  0  0  0  0  0  0  0
    4.9411    0.0000    0.0000 O   0  0  0  0  0  0  0  0  0  0  0  0
    3.5821    0.0000    0.0000 C   0  0  0  0  0  0  0  0  0  0  0  0
    2.7751    0.0000    0.0000 C   0  0  0  0  0  0  0  0  0  0  0  0
    2.5202    0.0000    0.0000 C   0  0  0  0  0  0  0  0  0  0  0  0
    1.9681    0.0000    0.0000 C   0  0  0  0  0  0  0  0  0  0  0  0
    1.7132    0.0000    0.0000 C   0  0  0  0  0  0  0  0  0  0  0  0
    1.1612    0.0000    0.0000 C   0  0  0  0  0  0  0  0  0  0  0  0
    0.3542    0.0000    0.0000 C   0  0  0  0  0  0  0  0  0  0  0  0
   -0.1978    0.0000    0.0000 O   0  0  0  0  0  0  0  0  0  0  0  0
    0.0993    0.0000    0.0000 C   0  0  0  0  0  0  0  0  0  0  0  0
   -0.5138    0.0000    0.0000 C   0  0  0  0  0  0  0  0  0  0  0  0
  1  2  1  0      
  2  3  1  0      
  3  4  2  0      
  3  5  1  0      
  5  6  1  0      
  6  7  1  0      
  7  8  1  0      
  7  9  1  0      
  9 10  1  0      
 10 11  1  0      
 11 12  1  0      
 12 13  1  0      
 13 14  1  0      
 14 15  1  0      
 14 16  1  0      
 16 17  1  0      
 17 18  1  0      
 18 19  1  0      
 19 20  1  0      
 19 21  1  0      
 21 22  1  0      
 22 23  1  0      
 17 23  1  0      
 23 24  1  0      
 23 25  1  0      
 13 25  1  0      
 25 26  1  0      
 26 27  1  0      
 27 28  1  0      
 27 29  1  0      
  9 29  1  0      
 12 29  1  0      
 29 30  1  0      
M  END
>  <Bioactivity>
Biotransformation of methyl cholate using Aspergillus niger was investigated.

>  <CAS>
1448-36-8

>  <Col>
7

>  <Formula>
C25H42O5

>  <ID>
T2744

>  <Index>
226

>  <MOLENAME>
Methyl Cholate

>  <MolWt>
422.61

>  <Pathways>
Others

>  <Plate>
PLATE 003

>  <QR code>
1151476980

>  <Receptor>
Others

>  <Reference>
1. Al-Aboudi A, et al. Steroids. 2009 Apr-May;74(4-5):483-6. 

>  <Row>
G

>  <SMILES>
COC(=O)CCC(C)C1CCC2C3C(O)CC4CC(O)CCC4(C)C3CC(O)C12C

>  <Target>
Others

>  <Weight>
10mg

$$$$
Lab-1.sdf
  ChemDraw05232018482D

 16 18  0  0  0  0  0  0  0  0999 V2000
   -1.8473    0.0000    0.0000 C   0  0  0  0  0  0  0  0  0  0  0  0
   -1.4423    0.0000    0.0000 C   0  0  0  0  0  0  0  0  0  0  0  0
   -0.8048    0.0000    0.0000 C   0  0  0  0  0  0  0  0  0  0  0  0
    0.0202    0.0000    0.0000 C   0  0  0  0  0  0  0  0  0  0  0  0
    0.6465    0.0000    0.0000 C   0  0  0  0  0  0  0  0  0  0  0  0
    0.7812    0.0000    0.0000 C   0  0  0  0  0  0  0  0  0  0  0  0
    1.5952    0.0000    0.0000 C   0  0  0  0  0  0  0  0  0  0  0  0
    1.4605    0.0000    0.0000 C   0  0  0  0  0  0  0  0  0  0  0  0
    2.2205    0.0000    0.0000 C   0  0  0  0  0  0  0  0  0  0  0  0
    1.5195    0.0000    0.0000 C   0  0  0  0  0  0  0  0  0  0  0  0
    0.3612    0.0000    0.0000 C   0  0  0  0  0  0  0  0  0  0  0  0
    0.8848    0.0000    0.0000 C   0  0  0  0  0  0  0  0  0  0  0  0
   -0.4170    0.0000    0.0000 C   0  0  0  0  0  0  0  0  0  0  0  0
   -1.1892    0.0000    0.0000 C   0  0  0  0  0  0  0  0  0  0  0  0
   -1.5941    0.0000    0.0000 C   0  0  0  0  0  0  0  0  0  0  0  0
   -2.2205    0.0000    0.0000 O   0  0  0  0  0  0  0  0  0  0  0  0
  1  2  1  0      
  2  3  1  0      
  3  4  1  0      
  4  5  1  0      
  5  6  1  0      
  6  7  1  0      
  7  8  1  0      
  5  8  1  0      
  8  9  1  0      
  8 10  1  0      
  6 11  1  0      
 11 12  2  0      
 11 13  1  0      
 13 14  1  0      
 14 15  1  0      
  2 15  1  0      
 15 16  1  0      
  2 16  1  0      
M  END
>  <Bioactivity>
Caryophyllene oxide, isolated from Aegle marmelos, has the potent anti-inflammatory activity.

>  <CAS>
1139-30-6

>  <Col>
8

>  <Formula>
C15H24O

>  <ID>
T2724

>  <Index>
227

>  <MOLENAME>
Caryophyllene oxide

>  <MolWt>
220.36

>  <Pathways>
Others

>  <Plate>
PLATE 003

>  <QR code>
1151476979

>  <Receptor>
Others

>  <Reference>
1. Sain S, et al. Antiinflamm Antiallergy Agents Med Chem. 2014 Mar;13(1):45-55.

>  <Row>
G

>  <SMILES>
CC12CCC3C(CC3(C)C)C(=C)CCC1O2

>  <Target>
Others

>  <Weight>
10.3mg

$$$$
Lab-1.sdf
  ChemDraw05232018482D

 77 84  0  0  0  0  0  0  0  0999 V2000
   -0.5833    0.0000    0.0000 O   0  0  0  0  0  0  0  0  0  0  0  0
   -1.2865    0.0000    0.0000 C   0  0  0  0  0  0  0  0  0  0  0  0
   -1.2954    0.0000    0.0000 C   0  0  0  0  0  0  0  0  0  0  0  0
   -0.5985    0.0000    0.0000 O   0  0  0  0  0  0  0  0  0  0  0  0
   -0.5750    0.0000    0.0000 C   0  0  0  0  0  0  0  0  0  0  0  0
    0.2624    0.0000    0.0000 O   0  0  0  0  0  0  0  0  0  0  0  0
    1.0686    0.0000    0.0000 C   0  0  0  0  0  0  0  0  0  0  0  0
    1.2112    0.0000    0.0000 C   0  0  0  0  0  0  0  0  0  0  0  0
    0.5860    0.0000    0.0000 C   0  0  0  0  0  0  0  0  0  0  0  0
    0.7149    0.0000    0.0000 O   0  0  0  0  0  0  0  0  0  0  0  0
    1.9587    0.0000    0.0000 O   0  0  0  0  0  0  0  0  0  0  0  0
    2.6190    0.0000    0.0000 C   0  0  0  0  0  0  0  0  0  0  0  0
    3.2371    0.0000    0.0000 O   0  0  0  0  0  0  0  0  0  0  0  0
    3.5588    0.0000    0.0000 C   0  0  0  0  0  0  0  0  0  0  0  0
    3.0123    0.0000    0.0000 C   0  0  0  0  0  0  0  0  0  0  0  0
    2.2238    0.0000    0.0000 C   0  0  0  0  0  0  0  0  0  0  0  0
    1.6815    0.0000    0.0000 O   0  0  0  0  0  0  0  0  0  0  0  0
    3.2476    0.0000    0.0000 O   0  0  0  0  0  0  0  0  0  0  0  0
    4.0474    0.0000    0.0000 C   0  0  0  0  0  0  0  0  0  0  0  0
    3.9808    0.0000    0.0000 O   0  0  0  0  0  0  0  0  0  0  0  0
    3.5757    0.0000    0.0000 C   0  0  0  0  0  0  0  0  0  0  0  0
    3.9185    0.0000    0.0000 C   0  0  0  0  0  0  0  0  0  0  0  0
    4.7226    0.0000    0.0000 C   0  0  0  0  0  0  0  0  0  0  0  0
    5.1822    0.0000    0.0000 O   0  0  0  0  0  0  0  0  0  0  0  0
    3.4625    0.0000    0.0000 O   0  0  0  0  0  0  0  0  0  0  0  0
    2.6347    0.0000    0.0000 C   0  0  0  0  0  0  0  0  0  0  0  0
    1.9335    0.0000    0.0000 O   0  0  0  0  0  0  0  0  0  0  0  0
    1.1068    0.0000    0.0000 C   0  0  0  0  0  0  0  0  0  0  0  0
    0.7303    0.0000    0.0000 C   0  0  0  0  0  0  0  0  0  0  0  0
    1.1796    0.0000    0.0000 C   0  0  0  0  0  0  0  0  0  0  0  0
    0.8239    0.0000    0.0000 O   0  0  0  0  0  0  0  0  0  0  0  0
   -0.0851    0.0000    0.0000 O   0  0  0  0  0  0  0  0  0  0  0  0
   -0.5552    0.0000    0.0000 C   0  0  0  0  0  0  0  0  0  0  0  0
   -1.3631    0.0000    0.0000 O   0  0  0  0  0  0  0  0  0  0  0  0
   -1.9890    0.0000    0.0000 C   0  0  0  0  0  0  0  0  0  0  0  0
   -2.8012    0.0000    0.0000 C   0  0  0  0  0  0  0  0  0  0  0  0
   -3.0450    0.0000    0.0000 C   0  0  0  0  0  0  0  0  0  0  0  0
   -3.8329    0.0000    0.0000 O   0  0  0  0  0  0  0  0  0  0  0  0
   -3.3619    0.0000    0.0000 O   0  0  0  0  0  0  0  0  0  0  0  0
   -3.1205    0.0000    0.0000 C   0  0  0  0  0  0  0  0  0  0  0  0
   -3.4267    0.0000    0.0000 O   0  0  0  0  0  0  0  0  0  0  0  0
   -3.3803    0.0000    0.0000 C   0  0  0  0  0  0  0  0  0  0  0  0
   -4.0167    0.0000    0.0000 C   0  0  0  0  0  0  0  0  0  0  0  0
   -4.7700    0.0000    0.0000 C   0  0  0  0  0  0  0  0  0  0  0  0
   -5.3969    0.0000    0.0000 O   0  0  0  0  0  0  0  0  0  0  0  0
   -3.9005    0.0000    0.0000 O   0  0  0  0  0  0  0  0  0  0  0  0
   -3.1293    0.0000    0.0000 C   0  0  0  0  0  0  0  0  0  0  0  0
   -2.7032    0.0000    0.0000 O   0  0  0  0  0  0  0  0  0  0  0  0
   -2.0196    0.0000    0.0000 C   0  0  0  0  0  0  0  0  0  0  0  0
   -2.0009    0.0000    0.0000 C   0  0  0  0  0  0  0  0  0  0  0  0
   -2.6964    0.0000    0.0000 O   0  0  0  0  0  0  0  0  0  0  0  0
   -1.2952    0.0000    0.0000 C   0  0  0  0  0  0  0  0  0  0  0  0
   -1.2997    0.0000    0.0000 O   0  0  0  0  0  0  0  0  0  0  0  0
   -2.4984    0.0000    0.0000 C   0  0  0  0  0  0  0  0  0  0  0  0
   -1.7429    0.0000    0.0000 O   0  0  0  0  0  0  0  0  0  0  0  0
   -2.6197    0.0000    0.0000 C   0  0  0  0  0  0  0  0  0  0  0  0
   -1.9835    0.0000    0.0000 O   0  0  0  0  0  0  0  0  0  0  0  0
   -2.3102    0.0000    0.0000 C   0  0  0  0  0  0  0  0  0  0  0  0
   -2.0607    0.0000    0.0000 O   0  0  0  0  0  0  0  0  0  0  0  0
   -1.7648    0.0000    0.0000 C   0  0  0  0  0  0  0  0  0  0  0  0
   -0.9803    0.0000    0.0000 O   0  0  0  0  0  0  0  0  0  0  0  0
   -0.1758    0.0000    0.0000 C   0  0  0  0  0  0  0  0  0  0  0  0
   -0.6201    0.0000    0.0000 O   0  0  0  0  0  0  0  0  0  0  0  0
    0.6258    0.0000    0.0000 C   0  0  0  0  0  0  0  0  0  0  0  0
    0.9678    0.0000    0.0000 O   0  0  0  0  0  0  0  0  0  0  0  0
    2.2977    0.0000    0.0000 C   0  0  0  0  0  0  0  0  0  0  0  0
    1.4941    0.0000    0.0000 O   0  0  0  0  0  0  0  0  0  0  0  0
    2.7518    0.0000    0.0000 C   0  0  0  0  0  0  0  0  0  0  0  0
    2.3937    0.0000    0.0000 O   0  0  0  0  0  0  0  0  0  0  0  0
    4.6093    0.0000    0.0000 C   0  0  0  0  0  0  0  0  0  0  0  0
    5.3969    0.0000    0.0000 O   0  0  0  0  0  0  0  0  0  0  0  0
    4.3627    0.0000    0.0000 C   0  0  0  0  0  0  0  0  0  0  0  0
    4.9160    0.0000    0.0000 O   0  0  0  0  0  0  0  0  0  0  0  0
    2.4920    0.0000    0.0000 C   0  0  0  0  0  0  0  0  0  0  0  0
    3.1200    0.0000    0.0000 O   0  0  0  0  0  0  0  0  0  0  0  0
    1.7283    0.0000    0.0000 C   0  0  0  0  0  0  0  0  0  0  0  0
    1.6142    0.0000    0.0000 O   0  0  0  0  0  0  0  0  0  0  0  0
  1  2  1  0      
  2  3  1  0      
  3  4  1  0      
  4  5  1  0      
  5  6  1  0      
  6  7  1  0      
  7  8  1  0      
  8  9  1  0      
  9 10  1  0      
  8 11  1  0      
 11 12  1  0      
 12 13  1  0      
 13 14  1  0      
 14 15  1  0      
 15 16  1  0      
 16 17  1  0      
 15 18  1  0      
 18 19  1  0      
 19 20  1  0      
 20 21  1  0      
 21 22  1  0      
 22 23  1  0      
 23 24  1  0      
 22 25  1  0      
 25 26  1  0      
 26 27  1  0      
 27 28  1  0      
 28 29  1  0      
 29 30  1  0      
 30 31  1  0      
 29 32  1  0      
 32 33  1  0      
 33 34  1  0      
 34 35  1  0      
 35 36  1  0      
 36 37  1  0      
 37 38  1  0      
 36 39  1  0      
 39 40  1  0      
 40 41  1  0      
 41 42  1  0      
 42 43  1  0      
 43 44  1  0      
 44 45  1  0      
 43 46  1  0      
 46 47  1  0      
 47 48  1  0      
 48 49  1  0      
  3 49  1  0      
 49 50  1  0      
 50 51  1  0      
 50 52  1  0      
  5 52  1  0      
 52 53  1  0      
 47 54  1  0      
 54 55  1  0      
 54 56  1  0      
 42 56  1  0      
 56 57  1  0      
 40 58  1  0      
 58 59  1  0      
 58 60  1  0      
 35 60  1  0      
 60 61  1  0      
 33 62  1  0      
 62 63  1  0      
 62 64  1  0      
 28 64  1  0      
 64 65  1  0      
 26 66  1  0      
 66 67  1  0      
 66 68  1  0      
 21 68  1  0      
 68 69  1  0      
 19 70  1  0      
 70 71  1  0      
 70 72  1  0      
 14 72  1  0      
 72 73  1  0      
 12 74  1  0      
 74 75  1  0      
 74 76  1  0      
  7 76  1  0      
 76 77  1  0      
M  END
>  <Bioactivity>
Cyclodextrins are produced from starch by means of enzymatic conversion. They are used in food, pharmaceutical,[1] drug delivery,[2] and chemical industries, as well as agriculture and environmental e
ngineering.

>  <CAS>
7585-39-9

>  <Col>
9

>  <Formula>
C42H70O35

>  <ID>
T2951

>  <Index>
228

>  <MOLENAME>
Beta-Cyclodextrin

>  <MolWt>
1135.01

>  <Pathways>
Others

>  <Plate>
PLATE 003

>  <QR code>
1151476978

>  <Receptor>
Others

>  <Reference>
1. Vecserny¨¦s M, et al. Arch Med Res. 2014 Nov;45(8):711-29. 

>  <Row>
G

>  <SMILES>
OCC1OC2OC3C(CO)OC(OC4C(CO)OC(OC5C(CO)OC(OC6C(CO)OC(OC7C(CO)OC(OC8C(CO)OC(OC1C(O)C2O)C(O)C8O)C(O)C7O)C(O)C6O)C(O)C5O)C(O)C4O)C(O)C3O

>  <Target>
Others

>  <Weight>
10.3mg

$$$$
Lab-1.sdf
  ChemDraw05232018482D

 28 31  0  0  0  0  0  0  0  0999 V2000
   -1.4673    0.0000    0.0000 C   0  0  0  0  0  0  0  0  0  0  0  0
   -1.7782    0.0000    0.0000 C   0  0  0  0  0  0  0  0  0  0  0  0
   -2.5955    0.0000    0.0000 C   0  0  0  0  0  0  0  0  0  0  0  0
   -3.1019    0.0000    0.0000 C   0  0  0  0  0  0  0  0  0  0  0  0
   -3.9191    0.0000    0.0000 C   0  0  0  0  0  0  0  0  0  0  0  0
   -4.4255    0.0000    0.0000 O   0  0  0  0  0  0  0  0  0  0  0  0
   -4.2300    0.0000    0.0000 O   0  0  0  0  0  0  0  0  0  0  0  0
   -1.2718    0.0000    0.0000 C   0  0  0  0  0  0  0  0  0  0  0  0
   -1.5011    0.0000    0.0000 C   0  0  0  0  0  0  0  0  0  0  0  0
   -0.8183    0.0000    0.0000 C   0  0  0  0  0  0  0  0  0  0  0  0
   -0.1670    0.0000    0.0000 C   0  0  0  0  0  0  0  0  0  0  0  0
    0.6452    0.0000    0.0000 C   0  0  0  0  0  0  0  0  0  0  0  0
    0.9254    0.0000    0.0000 C   0  0  0  0  0  0  0  0  0  0  0  0
    1.7376    0.0000    0.0000 C   0  0  0  0  0  0  0  0  0  0  0  0
    2.2695    0.0000    0.0000 C   0  0  0  0  0  0  0  0  0  0  0  0
    3.0816    0.0000    0.0000 C   0  0  0  0  0  0  0  0  0  0  0  0
    3.6134    0.0000    0.0000 C   0  0  0  0  0  0  0  0  0  0  0  0
    4.4255    0.0000    0.0000 O   0  0  0  0  0  0  0  0  0  0  0  0
    3.3331    0.0000    0.0000 C   0  0  0  0  0  0  0  0  0  0  0  0
    2.5210    0.0000    0.0000 C   0  0  0  0  0  0  0  0  0  0  0  0
    1.9891    0.0000    0.0000 C   0  0  0  0  0  0  0  0  0  0  0  0
    1.7088    0.0000    0.0000 C   0  0  0  0  0  0  0  0  0  0  0  0
    1.1770    0.0000    0.0000 C   0  0  0  0  0  0  0  0  0  0  0  0
    0.8967    0.0000    0.0000 C   0  0  0  0  0  0  0  0  0  0  0  0
    0.0846    0.0000    0.0000 C   0  0  0  0  0  0  0  0  0  0  0  0
   -0.1957    0.0000    0.0000 O   0  0  0  0  0  0  0  0  0  0  0  0
   -0.4473    0.0000    0.0000 C   0  0  0  0  0  0  0  0  0  0  0  0
   -0.8071    0.0000    0.0000 C   0  0  0  0  0  0  0  0  0  0  0  0
  1  2  1  0      
  2  3  1  0      
  3  4  1  0      
  4  5  1  0      
  5  6  1  0      
  5  7  2  0      
  2  8  1  0      
  8  9  1  0      
  9 10  1  0      
 10 11  1  0      
 11 12  1  0      
 12 13  1  0      
 13 14  1  0      
 14 15  1  0      
 15 16  1  0      
 16 17  1  0      
 17 18  1  0      
 17 19  1  0      
 19 20  1  0      
 20 21  1  0      
 15 21  1  0      
 21 22  1  0      
 21 23  1  0      
 12 23  1  0      
 23 24  1  0      
 24 25  1  0      
 25 26  1  0      
 25 27  1  0      
  8 27  1  0      
 11 27  1  0      
 27 28  1  0      
M  END
>  <Bioactivity>
Extracted from Pig bile; Suitability:Ethanol,ether,three oxygen methane,acetone,acetic acid,alkali hydroxide and alkali carbonate solution;Store the product in sealed,cool and dry condition

>  <CAS>
83-44-3

>  <Col>
10

>  <Formula>
C24H40O4

>  <ID>
T2965

>  <Index>
229

>  <MOLENAME>
Deoxycholic acid

>  <MolWt>
392.57

>  <Pathways>
Others

>  <Plate>
PLATE 003

>  <QR code>
1151476977

>  <Receptor>
Others

>  <Reference>
1. Walker P, Lee D. J Cosmet Dermatol. 2015 Mar;14(1):33-9. 

>  <Row>
G

>  <SMILES>
CC(CCC(O)=O)C1CCC2C3CCC4CC(O)CCC4(C)C3CC(O)C12C

>  <Target>
Others

>  <Weight>
10.1mg

$$$$
Lab-1.sdf
  ChemDraw05232018482D

 14 13  0  0  0  0  0  0  0  0999 V2000
    0.3571    0.0000    0.0000 O   0  0  0  0  0  0  0  0  0  0  0  0
    0.3571    0.0000    0.0000 C   0  0  0  0  0  0  0  0  0  0  0  0
   -0.3573    0.0000    0.0000 C   0  0  0  0  0  0  0  0  0  0  0  0
   -0.3573    0.0000    0.0000 O   0  0  0  0  0  0  0  0  0  0  0  0
   -1.0718    0.0000    0.0000 C   0  0  0  0  0  0  0  0  0  0  0  0
   -1.0718    0.0000    0.0000 O   0  0  0  0  0  0  0  0  0  0  0  0
   -1.7862    0.0000    0.0000 C   0  0  0  0  0  0  0  0  0  0  0  0
   -2.5006    0.0000    0.0000 O   0  0  0  0  0  0  0  0  0  0  0  0
   -1.7862    0.0000    0.0000 O   0  0  0  0  0  0  0  0  0  0  0  0
    1.0716    0.0000    0.0000 C   0  0  0  0  0  0  0  0  0  0  0  0
    1.0716    0.0000    0.0000 O   0  0  0  0  0  0  0  0  0  0  0  0
    1.7861    0.0000    0.0000 C   0  0  0  0  0  0  0  0  0  0  0  0
    2.5006    0.0000    0.0000 O   0  0  0  0  0  0  0  0  0  0  0  0
    1.7861    0.0000    0.0000 O   0  0  0  0  0  0  0  0  0  0  0  0
  1  2  1  0      
  2  3  1  0      
  3  4  1  0      
  3  5  1  0      
  5  6  1  0      
  5  7  1  0      
  7  8  1  0      
  7  9  2  0      
  2 10  1  0      
 10 11  1  0      
 10 12  1  0      
 12 13  1  0      
 12 14  2  0      
M  END
>  <Bioactivity>
Mucic acid is an aldaric acid obtained by nitric acid oxidation of galactose or galactose-containing compounds such as lactose, dulcite, quercite, and most varieties of gum.

>  <CAS>
526-99-8

>  <Col>
11

>  <Formula>
C6H10O8

>  <ID>
T2877

>  <Index>
230

>  <MOLENAME>
Mucic Acid

>  <MolWt>
210.14

>  <Pathways>
Others

>  <Plate>
PLATE 003

>  <QR code>
1151476976

>  <Receptor>
Others

>  <Reference>
1. Mehti? T, et al. Carbohydr Res. 2015 Jan 30;402:102-10. 

>  <Row>
G

>  <SMILES>
OC(C(O)C(O)C(O)=O)C(O)C(O)=O

>  <Target>
Others

>  <Weight>
10.1mg

$$$$
Lab-1.sdf
  ChemDraw05232018482D

 13 12  0  0  0  0  0  0  0  0999 V2000
   -2.3718    0.0000    0.0000 Cl  0  0  0  0  0  0  0  0  0  0  0  0
    0.9429    0.0000    0.0000 N   0  0  0  0  0  0  0  0  0  0  0  0
    0.9429    0.0000    0.0000 C   0  0  0  0  0  0  0  0  0  0  0  0
    1.6573    0.0000    0.0000 C   0  0  0  0  0  0  0  0  0  0  0  0
    2.3718    0.0000    0.0000 O   0  0  0  0  0  0  0  0  0  0  0  0
    1.6573    0.0000    0.0000 O   0  0  0  0  0  0  0  0  0  0  0  0
    0.9429    0.0000    0.0000 C   0  0  0  0  0  0  0  0  0  0  0  0
    0.9429    0.0000    0.0000 C   0  0  0  0  0  0  0  0  0  0  0  0
    1.6573    0.0000    0.0000 O   0  0  0  0  0  0  0  0  0  0  0  0
    0.2284    0.0000    0.0000 C   0  0  0  0  0  0  0  0  0  0  0  0
   -0.4861    0.0000    0.0000 O   0  0  0  0  0  0  0  0  0  0  0  0
    0.2284    0.0000    0.0000 C   0  0  0  0  0  0  0  0  0  0  0  0
   -0.4861    0.0000    0.0000 O   0  0  0  0  0  0  0  0  0  0  0  0
  2  3  1  0      
  3  4  1  0      
  4  5  1  0      
  4  6  1  0      
  6  7  1  0      
  7  8  1  0      
  8  9  1  0      
  7 10  1  0      
 10 11  1  0      
 10 12  1  0      
  3 12  1  0      
 12 13  1  0      
M  END
>  <Bioactivity>
Glucosamine (hydrochloride) is a natural product.

>  <CAS>
66-84-2

>  <Col>
2

>  <Formula>
C6H13NO5?HCl

>  <ID>
T2941

>  <Index>
231

>  <MOLENAME>
Glucosamine hydrochloride

>  <MolWt>
215.63

>  <Pathways>
Others

>  <Plate>
PLATE 003

>  <QR code>
1151476964

>  <Receptor>
Others

>  <Reference>
1. Jamialahmadi K, et al. Environ Toxicol Pharmacol. 2014 Jul;38(1):212-9.

>  <Row>
H

>  <SMILES>
Cl.NC1C(O)OC(CO)C(O)C1O

>  <Target>
Others

>  <Weight>
10mg

$$$$
Lab-1.sdf
  ChemDraw05232018482D

 18 20  0  0  0  0  0  0  0  0999 V2000
    2.5006    0.0000    0.0000 O   0  0  0  0  0  0  0  0  0  0  0  0
    1.7861    0.0000    0.0000 C   0  0  0  0  0  0  0  0  0  0  0  0
    1.0717    0.0000    0.0000 C   0  0  0  0  0  0  0  0  0  0  0  0
    1.0717    0.0000    0.0000 O   0  0  0  0  0  0  0  0  0  0  0  0
    0.3572    0.0000    0.0000 C   0  0  0  0  0  0  0  0  0  0  0  0
    0.3572    0.0000    0.0000 C   0  0  0  0  0  0  0  0  0  0  0  0
    1.0717    0.0000    0.0000 C   0  0  0  0  0  0  0  0  0  0  0  0
    1.7861    0.0000    0.0000 C   0  0  0  0  0  0  0  0  0  0  0  0
   -0.3573    0.0000    0.0000 C   0  0  0  0  0  0  0  0  0  0  0  0
   -0.3573    0.0000    0.0000 O   0  0  0  0  0  0  0  0  0  0  0  0
   -1.0718    0.0000    0.0000 C   0  0  0  0  0  0  0  0  0  0  0  0
   -1.7861    0.0000    0.0000 C   0  0  0  0  0  0  0  0  0  0  0  0
   -2.5006    0.0000    0.0000 C   0  0  0  0  0  0  0  0  0  0  0  0
   -2.5006    0.0000    0.0000 C   0  0  0  0  0  0  0  0  0  0  0  0
   -1.7861    0.0000    0.0000 C   0  0  0  0  0  0  0  0  0  0  0  0
   -1.0718    0.0000    0.0000 C   0  0  0  0  0  0  0  0  0  0  0  0
   -0.3573    0.0000    0.0000 C   0  0  0  0  0  0  0  0  0  0  0  0
   -0.3573    0.0000    0.0000 O   0  0  0  0  0  0  0  0  0  0  0  0
  1  2  1  0      
  2  3  2  0      
  3  4  1  0      
  3  5  1  0      
  5  6  2  0      
  6  7  1  0      
  7  8  2  0      
  2  8  1  0      
  6  9  1  0      
  9 10  2  0      
  9 11  1  0      
 11 12  2  0      
 12 13  1  0      
 13 14  2  0      
 14 15  1  0      
 15 16  2  0      
 11 16  1  0      
 16 17  1  0      
  5 17  1  0      
 17 18  2  0      
M  END
>  <Bioactivity>
Alizarin or 1,2-dihydroxyanthraquinone is an organic compound that has been used throughout history as a prominent red dye, principally for dyeing textile fabrics. Historically it was derived from the
 roots of plants of the madder genus. In 1869, it became the first natural pigment to be duplicated synthetically.

>  <CAS>
72-48-0

>  <Col>
3

>  <Formula>
C14H8O4

>  <ID>
T2949

>  <Index>
232

>  <MOLENAME>
Alizarin

>  <MolWt>
240.22

>  <Pathways>
Others

>  <Plate>
PLATE 003

>  <QR code>
1151476965

>  <Receptor>
Others

>  <Reference>
1. Duval F, et al. J Chromatogr A. 2015 Oct 23;1417:57-63.

>  <Row>
H

>  <SMILES>
OC1=C(O)C2=C(C=C1)C(=O)C1=CC=CC=C1C2=O

>  <Target>
Others

>  <Weight>
10.1mg

$$$$
Lab-1.sdf
  ChemDraw05232018482D

 23 23  0  0  0  0  0  0  0  0999 V2000
   -4.7969    0.0000    0.0000 C   0  0  0  0  0  0  0  0  0  0  0  0
   -4.1733    0.0000    0.0000 C   0  0  0  0  0  0  0  0  0  0  0  0
   -3.3936    0.0000    0.0000 C   0  0  0  0  0  0  0  0  0  0  0  0
   -2.7700    0.0000    0.0000 C   0  0  0  0  0  0  0  0  0  0  0  0
   -1.9904    0.0000    0.0000 C   0  0  0  0  0  0  0  0  0  0  0  0
   -1.3668    0.0000    0.0000 C   0  0  0  0  0  0  0  0  0  0  0  0
   -0.5872    0.0000    0.0000 C   0  0  0  0  0  0  0  0  0  0  0  0
    0.0364    0.0000    0.0000 C   0  0  0  0  0  0  0  0  0  0  0  0
    0.8160    0.0000    0.0000 C   0  0  0  0  0  0  0  0  0  0  0  0
    1.4396    0.0000    0.0000 C   0  0  0  0  0  0  0  0  0  0  0  0
    2.2192    0.0000    0.0000 C   0  0  0  0  0  0  0  0  0  0  0  0
    2.3751    0.0000    0.0000 C   0  0  0  0  0  0  0  0  0  0  0  0
    3.1546    0.0000    0.0000 O   0  0  0  0  0  0  0  0  0  0  0  0
    1.7514    0.0000    0.0000 O   0  0  0  0  0  0  0  0  0  0  0  0
    2.8428    0.0000    0.0000 C   0  0  0  0  0  0  0  0  0  0  0  0
    3.3148    0.0000    0.0000 C   0  0  0  0  0  0  0  0  0  0  0  0
    4.1042    0.0000    0.0000 C   0  0  0  0  0  0  0  0  0  0  0  0
    4.1201    0.0000    0.0000 C   0  0  0  0  0  0  0  0  0  0  0  0
    4.7969    0.0000    0.0000 O   0  0  0  0  0  0  0  0  0  0  0  0
    3.3405    0.0000    0.0000 O   0  0  0  0  0  0  0  0  0  0  0  0
    2.2405    0.0000    0.0000 C   0  0  0  0  0  0  0  0  0  0  0  0
    2.4276    0.0000    0.0000 O   0  0  0  0  0  0  0  0  0  0  0  0
    1.4511    0.0000    0.0000 O   0  0  0  0  0  0  0  0  0  0  0  0
  1  2  1  0      
  2  3  1  0      
  3  4  1  0      
  4  5  1  0      
  5  6  1  0      
  6  7  1  0      
  7  8  1  0      
  8  9  1  0      
  9 10  1  0      
 10 11  1  0      
 11 12  1  0      
 12 13  1  0      
 12 14  2  0      
 11 15  1  0      
 15 16  1  0      
 16 17  1  0      
 17 18  1  0      
 18 19  2  0      
 18 20  1  0      
 15 20  1  0      
 15 21  1  0      
 21 22  1  0      
 21 23  2  0      
M  END
>  <Bioactivity>
Spiculisporic acid is a bioactive ¦Ã-butenolide isolated from a marine Aspergillus.

>  <CAS>
469-77-2

>  <Col>
4

>  <Formula>
C17H28O6

>  <ID>
T2828

>  <Index>
233

>  <MOLENAME>
Spiculisporic Acid

>  <MolWt>
328.41

>  <Pathways>
Others

>  <Plate>
PLATE 003

>  <QR code>
1151476966

>  <Receptor>
Others

>  <Reference>
1. Wang R, et al. Molecules (Basel, Switzerland),2012, 17 (11): 13175?82.

>  <Row>
H

>  <SMILES>
CCCCCCCCCCC(C(O)=O)C1(CCC(=O)O1)C(O)=O

>  <Target>
Others

>  <Weight>
10.2mg

$$$$
Lab-1.sdf
  ChemDraw05232018482D

 13 13  0  0  0  0  0  0  0  0999 V2000
   -1.0717    0.0000    0.0000 C   0  0  0  0  0  0  0  0  0  0  0  0
   -1.0717    0.0000    0.0000 O   0  0  0  0  0  0  0  0  0  0  0  0
   -0.3572    0.0000    0.0000 C   0  0  0  0  0  0  0  0  0  0  0  0
    0.3573    0.0000    0.0000 O   0  0  0  0  0  0  0  0  0  0  0  0
   -0.3572    0.0000    0.0000 C   0  0  0  0  0  0  0  0  0  0  0  0
    0.3573    0.0000    0.0000 C   0  0  0  0  0  0  0  0  0  0  0  0
    0.3573    0.0000    0.0000 C   0  0  0  0  0  0  0  0  0  0  0  0
    1.0717    0.0000    0.0000 C   0  0  0  0  0  0  0  0  0  0  0  0
    1.0717    0.0000    0.0000 C   0  0  0  0  0  0  0  0  0  0  0  0
    0.3573    0.0000    0.0000 C   0  0  0  0  0  0  0  0  0  0  0  0
    0.3573    0.0000    0.0000 O   0  0  0  0  0  0  0  0  0  0  0  0
   -0.3572    0.0000    0.0000 C   0  0  0  0  0  0  0  0  0  0  0  0
   -0.3572    0.0000    0.0000 C   0  0  0  0  0  0  0  0  0  0  0  0
  1  2  1  0      
  2  3  1  0      
  3  4  2  0      
  5  3  1  4      
  5  6  2  0      
  6  7  1  0      
  7  8  2  0      
  8  9  1  0      
  9 10  2  0      
 10 11  1  0      
 10 12  1  0      
 12 13  2  0      
  7 13  1  0      
M  END
>  <Bioactivity>
N/A

>  <CAS>
3943-97-3

>  <Col>
5

>  <Formula>
C10H10O3

>  <ID>
T2819

>  <Index>
234

>  <MOLENAME>
Methyl 4-hydroxycinnamate

>  <MolWt>
178.18

>  <Pathways>
Others

>  <Plate>
PLATE 003

>  <QR code>
1151476967

>  <Receptor>
Others

>  <Reference>
1. Tan EM, et al. J Phys Chem B. 2013 May 2;117(17):4798-805.

>  <Row>
H

>  <SMILES>
COC(=O)C=CC1=CC=C(O)C=C1

>  <Target>
Others

>  <Weight>
9.8mg

$$$$
Lab-1.sdf
  ChemDraw05232018482D

 12 12  0  0  0  0  0  0  0  0999 V2000
   -0.7145    0.0000    0.0000 C   0  0  0  0  0  0  0  0  0  0  0  0
    0.0000    0.0000    0.0000 C   0  0  0  0  0  0  0  0  0  0  0  0
    0.7145    0.0000    0.0000 O   0  0  0  0  0  0  0  0  0  0  0  0
    0.0000    0.0000    0.0000 C   0  0  0  0  0  0  0  0  0  0  0  0
    0.7145    0.0000    0.0000 C   0  0  0  0  0  0  0  0  0  0  0  0
    1.4289    0.0000    0.0000 O   0  0  0  0  0  0  0  0  0  0  0  0
    0.7145    0.0000    0.0000 C   0  0  0  0  0  0  0  0  0  0  0  0
    0.0000    0.0000    0.0000 C   0  0  0  0  0  0  0  0  0  0  0  0
    0.0000    0.0000    0.0000 O   0  0  0  0  0  0  0  0  0  0  0  0
   -0.7145    0.0000    0.0000 C   0  0  0  0  0  0  0  0  0  0  0  0
   -0.7145    0.0000    0.0000 C   0  0  0  0  0  0  0  0  0  0  0  0
   -1.4289    0.0000    0.0000 O   0  0  0  0  0  0  0  0  0  0  0  0
  1  2  1  0      
  2  3  2  0      
  2  4  1  0      
  4  5  2  0      
  5  6  1  0      
  5  7  1  0      
  7  8  2  0      
  8  9  1  0      
  8 10  1  0      
 10 11  2  0      
  4 11  1  0      
 11 12  1  0      
M  END
>  <Bioactivity>
1. 2',4',6'-Trihydroxyacetophenone has antiobesity and hypolipidemic effects , may be partly mediated by delaying the intestinal absorption of dietary fat by inhibiting pancreatic lipase activity.

>  <CAS>
480-66-0

>  <Col>
6

>  <Formula>
C8H8O4

>  <ID>
T2840

>  <Index>
235

>  <MOLENAME>
Phloracetophenone

>  <MolWt>
168.15

>  <Pathways>
Others

>  <Plate>
PLATE 003

>  <QR code>
1151476968

>  <Receptor>
Others

>  <Reference>
1. Lai YH, et al. Rapid Commun Mass Spectrom. 2014 Aug 15;28(15):1716-22. 

>  <Row>
H

>  <SMILES>
CC(=O)C1=C(O)C=C(O)C=C1O

>  <Target>
Others

>  <Weight>
10.4mg

$$$$
Lab-1.sdf
  ChemDraw05232018482D

 28 31  0  0  0  0  0  0  0  0999 V2000
   -4.9410    0.0000    0.0000 C   0  0  0  0  0  0  0  0  0  0  0  0
   -4.2266    0.0000    0.0000 C   0  0  0  0  0  0  0  0  0  0  0  0
   -4.2266    0.0000    0.0000 C   0  0  0  0  0  0  0  0  0  0  0  0
   -3.5122    0.0000    0.0000 C   0  0  0  0  0  0  0  0  0  0  0  0
   -2.7977    0.0000    0.0000 C   0  0  0  0  0  0  0  0  0  0  0  0
   -2.0833    0.0000    0.0000 C   0  0  0  0  0  0  0  0  0  0  0  0
   -1.3688    0.0000    0.0000 C   0  0  0  0  0  0  0  0  0  0  0  0
   -1.3688    0.0000    0.0000 C   0  0  0  0  0  0  0  0  0  0  0  0
   -0.6543    0.0000    0.0000 C   0  0  0  0  0  0  0  0  0  0  0  0
   -0.5681    0.0000    0.0000 C   0  0  0  0  0  0  0  0  0  0  0  0
    0.2388    0.0000    0.0000 C   0  0  0  0  0  0  0  0  0  0  0  0
    0.6513    0.0000    0.0000 C   0  0  0  0  0  0  0  0  0  0  0  0
    1.4583    0.0000    0.0000 C   0  0  0  0  0  0  0  0  0  0  0  0
    2.0103    0.0000    0.0000 C   0  0  0  0  0  0  0  0  0  0  0  0
    2.8173    0.0000    0.0000 C   0  0  0  0  0  0  0  0  0  0  0  0
    3.0722    0.0000    0.0000 C   0  0  0  0  0  0  0  0  0  0  0  0
    3.8791    0.0000    0.0000 C   0  0  0  0  0  0  0  0  0  0  0  0
    4.1340    0.0000    0.0000 C   0  0  0  0  0  0  0  0  0  0  0  0
    4.9410    0.0000    0.0000 O   0  0  0  0  0  0  0  0  0  0  0  0
    3.5821    0.0000    0.0000 C   0  0  0  0  0  0  0  0  0  0  0  0
    2.7751    0.0000    0.0000 C   0  0  0  0  0  0  0  0  0  0  0  0
    2.5202    0.0000    0.0000 C   0  0  0  0  0  0  0  0  0  0  0  0
    1.9681    0.0000    0.0000 C   0  0  0  0  0  0  0  0  0  0  0  0
    1.7132    0.0000    0.0000 C   0  0  0  0  0  0  0  0  0  0  0  0
    1.1612    0.0000    0.0000 C   0  0  0  0  0  0  0  0  0  0  0  0
    0.3542    0.0000    0.0000 C   0  0  0  0  0  0  0  0  0  0  0  0
    0.0993    0.0000    0.0000 C   0  0  0  0  0  0  0  0  0  0  0  0
   -0.5137    0.0000    0.0000 C   0  0  0  0  0  0  0  0  0  0  0  0
  1  2  1  0      
  2  3  1  0      
  2  4  1  0      
  4  5  1  0      
  5  6  1  0      
  6  7  1  0      
  7  8  1  0      
  7  9  1  0      
  9 10  1  0      
 10 11  1  0      
 11 12  1  0      
 12 13  1  0      
 13 14  1  0      
 14 15  1  0      
 15 16  1  0      
 16 17  1  0      
 17 18  1  0      
 18 19  1  0      
 18 20  1  0      
 20 21  1  0      
 21 22  1  0      
 16 22  1  0      
 22 23  1  0      
 22 24  1  0      
 13 24  1  0      
 24 25  1  0      
 25 26  1  0      
 26 27  1  0      
  9 27  1  0      
 12 27  1  0      
 27 28  1  0      
M  END
>  <Bioactivity>
Dihydrocholesterol is a cholesterol derivative found in human feces, gallstones, eggs, and other biological matter.

>  <CAS>
80-97-7

>  <Col>
7

>  <Formula>
C27H48O

>  <ID>
T2962

>  <Index>
236

>  <MOLENAME>
Dihydrocholesterol

>  <MolWt>
388.68

>  <Pathways>
Others

>  <Plate>
PLATE 003

>  <QR code>
1151476969

>  <Receptor>
Others

>  <Reference>
1. Wang X, et al. Atherosclerosis. 2015 Sep;242(1):77-86. 

>  <Row>
H

>  <SMILES>
CC(C)CCCC(C)C1CCC2C3CCC4CC(O)CCC4(C)C3CCC12C

>  <Target>
Others

>  <Weight>
9.8mg

$$$$
Lab-1.sdf
  ChemDraw05232018482D

 11 11  0  0  0  0  0  0  0  0999 V2000
   -0.7145    0.0000    0.0000 O   0  0  0  0  0  0  0  0  0  0  0  0
    0.0000    0.0000    0.0000 C   0  0  0  0  0  0  0  0  0  0  0  0
    0.7145    0.0000    0.0000 O   0  0  0  0  0  0  0  0  0  0  0  0
    0.0000    0.0000    0.0000 C   0  0  0  0  0  0  0  0  0  0  0  0
    0.7145    0.0000    0.0000 C   0  0  0  0  0  0  0  0  0  0  0  0
    1.4289    0.0000    0.0000 O   0  0  0  0  0  0  0  0  0  0  0  0
    0.7145    0.0000    0.0000 C   0  0  0  0  0  0  0  0  0  0  0  0
    0.0000    0.0000    0.0000 C   0  0  0  0  0  0  0  0  0  0  0  0
   -0.7145    0.0000    0.0000 C   0  0  0  0  0  0  0  0  0  0  0  0
   -1.4289    0.0000    0.0000 O   0  0  0  0  0  0  0  0  0  0  0  0
   -0.7145    0.0000    0.0000 C   0  0  0  0  0  0  0  0  0  0  0  0
  1  2  1  0      
  2  3  2  0      
  2  4  1  0      
  4  5  2  0      
  5  6  1  0      
  5  7  1  0      
  7  8  2  0      
  8  9  1  0      
  9 10  1  0      
  9 11  2  0      
  4 11  1  0      
M  END
>  <Bioactivity>
Gentisic acid is a dihydroxybenzoic acid. It is a derivative of benzoic acid and a minor (1%) product of the metabolic break down of aspirin, excreted by the kidneys.It is also found in the African tr
ee Alchornea cordifolia and in wine.

>  <CAS>
490-79-9

>  <Col>
8

>  <Formula>
C7H6O4

>  <ID>
T2857

>  <Index>
237

>  <MOLENAME>
Gentisic acid

>  <MolWt>
154.12

>  <Pathways>
Others

>  <Plate>
PLATE 003

>  <QR code>
1151476970

>  <Receptor>
Others

>  <Reference>
1. Wang L, et al. J Chromatogr B Analyt Technol Biomed Life Sci. 2013 Oct 15;937:91-6. 

>  <Row>
H

>  <SMILES>
OC(=O)C1=C(O)C=CC(O)=C1

>  <Target>
Others

>  <Weight>
10.3mg

$$$$
Lab-1.sdf
  ChemDraw05232018482D

 30 35  0  0  0  0  0  0  0  0999 V2000
   -1.8550    0.0000    0.0000 C   0  0  0  0  0  0  0  0  0  0  0  0
   -1.7307    0.0000    0.0000 C   0  0  0  0  0  0  0  0  0  0  0  0
   -0.9978    0.0000    0.0000 C   0  0  0  0  0  0  0  0  0  0  0  0
   -1.1315    0.0000    0.0000 C   0  0  0  0  0  0  0  0  0  0  0  0
   -0.3986    0.0000    0.0000 C   0  0  0  0  0  0  0  0  0  0  0  0
    0.1882    0.0000    0.0000 C   0  0  0  0  0  0  0  0  0  0  0  0
    1.0118    0.0000    0.0000 C   0  0  0  0  0  0  0  0  0  0  0  0
    1.3821    0.0000    0.0000 C   0  0  0  0  0  0  0  0  0  0  0  0
    2.2057    0.0000    0.0000 C   0  0  0  0  0  0  0  0  0  0  0  0
    2.6590    0.0000    0.0000 C   0  0  0  0  0  0  0  0  0  0  0  0
    3.4826    0.0000    0.0000 C   0  0  0  0  0  0  0  0  0  0  0  0
    3.9359    0.0000    0.0000 C   0  0  0  0  0  0  0  0  0  0  0  0
    4.7596    0.0000    0.0000 O   0  0  0  0  0  0  0  0  0  0  0  0
    3.5657    0.0000    0.0000 C   0  0  0  0  0  0  0  0  0  0  0  0
    2.7421    0.0000    0.0000 C   0  0  0  0  0  0  0  0  0  0  0  0
    2.2887    0.0000    0.0000 C   0  0  0  0  0  0  0  0  0  0  0  0
    1.9185    0.0000    0.0000 C   0  0  0  0  0  0  0  0  0  0  0  0
    1.4651    0.0000    0.0000 C   0  0  0  0  0  0  0  0  0  0  0  0
    1.0948    0.0000    0.0000 C   0  0  0  0  0  0  0  0  0  0  0  0
    0.2712    0.0000    0.0000 C   0  0  0  0  0  0  0  0  0  0  0  0
   -0.1822    0.0000    0.0000 C   0  0  0  0  0  0  0  0  0  0  0  0
   -0.6275    0.0000    0.0000 C   0  0  0  0  0  0  0  0  0  0  0  0
   -1.9471    0.0000    0.0000 O   0  0  0  0  0  0  0  0  0  0  0  0
   -2.3174    0.0000    0.0000 C   0  0  0  0  0  0  0  0  0  0  0  0
   -2.6086    0.0000    0.0000 C   0  0  0  0  0  0  0  0  0  0  0  0
   -3.4227    0.0000    0.0000 C   0  0  0  0  0  0  0  0  0  0  0  0
   -3.9456    0.0000    0.0000 C   0  0  0  0  0  0  0  0  0  0  0  0
   -4.7596    0.0000    0.0000 C   0  0  0  0  0  0  0  0  0  0  0  0
   -3.6544    0.0000    0.0000 C   0  0  0  0  0  0  0  0  0  0  0  0
   -2.8403    0.0000    0.0000 O   0  0  0  0  0  0  0  0  0  0  0  0
  1  2  1  0      
  2  3  1  0      
  3  4  1  0      
  4  5  1  0      
  5  6  1  0      
  6  7  1  0      
  7  8  1  0      
  8  9  1  0      
  9 10  2  0      
 10 11  1  0      
 11 12  1  0      
 12 13  1  0      
 12 14  1  0      
 14 15  1  0      
 15 16  1  0      
 10 16  1  0      
 16 17  1  0      
 16 18  1  0      
  7 18  1  0      
 18 19  1  0      
 19 20  1  0      
 20 21  1  0      
  3 21  1  0      
  6 21  1  0      
 21 22  1  0      
  4 23  1  0      
 23 24  1  0      
  2 24  1  0      
 24 25  1  0      
 25 26  1  0      
 26 27  1  0      
 27 28  1  0      
 27 29  1  0      
 29 30  1  0      
 24 30  1  0      
M  END
>  <Bioactivity>
Diosgenin, an important natural source of steroidal hormones, has favorable effects in the improvement of diabetes and regulation of lipid metabolism.

>  <CAS>
512-04-9

>  <Col>
9

>  <Formula>
C27H42O3

>  <ID>
T2867

>  <Index>
238

>  <MOLENAME>
Diosgenin

>  <MolWt>
414.63

>  <Pathways>
Others

>  <Plate>
PLATE 003

>  <QR code>
1151476971

>  <Receptor>
Others

>  <Reference>
1. Wu L, et al. Biol Reprod. 2015 Jan;92(1):24. 

>  <Row>
H

>  <SMILES>
CC1C2C(CC3C4CC=C5CC(O)CCC5(C)C4CCC23C)OC11CCC(C)CO1

>  <Target>
Others

>  <Weight>
10.2mg

$$$$
Lab-1.sdf
  ChemDraw05232018482D

 12 12  0  0  0  0  0  0  0  0999 V2000
    1.0717    0.0000    0.0000 C   0  0  0  0  0  0  0  0  0  0  0  0
    0.3573    0.0000    0.0000 O   0  0  0  0  0  0  0  0  0  0  0  0
    0.3573    0.0000    0.0000 C   0  0  0  0  0  0  0  0  0  0  0  0
    1.0717    0.0000    0.0000 C   0  0  0  0  0  0  0  0  0  0  0  0
    1.0717    0.0000    0.0000 C   0  0  0  0  0  0  0  0  0  0  0  0
    0.3573    0.0000    0.0000 C   0  0  0  0  0  0  0  0  0  0  0  0
   -0.3572    0.0000    0.0000 C   0  0  0  0  0  0  0  0  0  0  0  0
   -1.0717    0.0000    0.0000 C   0  0  0  0  0  0  0  0  0  0  0  0
   -1.0717    0.0000    0.0000 O   0  0  0  0  0  0  0  0  0  0  0  0
   -0.3572    0.0000    0.0000 C   0  0  0  0  0  0  0  0  0  0  0  0
   -1.0717    0.0000    0.0000 O   0  0  0  0  0  0  0  0  0  0  0  0
   -1.0717    0.0000    0.0000 C   0  0  0  0  0  0  0  0  0  0  0  0
  1  2  1  0      
  2  3  1  0      
  3  4  2  0      
  4  5  1  0      
  5  6  2  0      
  6  7  1  0      
  7  8  1  0      
  8  9  2  0      
  7 10  2  0      
  3 10  1  0      
 10 11  1  0      
 11 12  1  0      
M  END
>  <Bioactivity>
Veratraldehyde is an organic compound that is widely used as a flavorant and odorant. The compound is structurally related to benzaldehyde.

>  <CAS>
86-51-1

>  <Col>
10

>  <Formula>
C9H10O3

>  <ID>
T2975

>  <Index>
239

>  <MOLENAME>
o-Veratraldehyde

>  <MolWt>
166.18

>  <Pathways>
Others

>  <Plate>
PLATE 003

>  <QR code>
1151476972

>  <Receptor>
Others

>  <Reference>
1. Peralta MA, et al. Acta Crystallogr C. 2007 Jan;63(Pt 1):o68-72. 

>  <Row>
H

>  <SMILES>
COC1=CC=CC(C=O)=C1OC

>  <Target>
Others

>  <Weight>
9.9mg

$$$$
Lab-1.sdf
  ChemDraw05232018482D

 12 11  0  0  0  0  0  0  0  0999 V2000
   -2.5006    0.0000    0.0000 O   0  0  0  0  0  0  0  0  0  0  0  0
   -1.7862    0.0000    0.0000 C   0  0  0  0  0  0  0  0  0  0  0  0
   -1.0718    0.0000    0.0000 C   0  0  0  0  0  0  0  0  0  0  0  0
   -1.0718    0.0000    0.0000 O   0  0  0  0  0  0  0  0  0  0  0  0
   -0.3573    0.0000    0.0000 C   0  0  0  0  0  0  0  0  0  0  0  0
   -0.3573    0.0000    0.0000 O   0  0  0  0  0  0  0  0  0  0  0  0
    0.3571    0.0000    0.0000 C   0  0  0  0  0  0  0  0  0  0  0  0
    0.3571    0.0000    0.0000 O   0  0  0  0  0  0  0  0  0  0  0  0
    1.0716    0.0000    0.0000 C   0  0  0  0  0  0  0  0  0  0  0  0
    1.0716    0.0000    0.0000 O   0  0  0  0  0  0  0  0  0  0  0  0
    1.7861    0.0000    0.0000 C   0  0  0  0  0  0  0  0  0  0  0  0
    2.5006    0.0000    0.0000 O   0  0  0  0  0  0  0  0  0  0  0  0
  1  2  1  0      
  2  3  1  0      
  3  4  1  0      
  3  5  1  0      
  5  6  1  0      
  5  7  1  0      
  7  8  1  0      
  7  9  1  0      
  9 10  2  0      
  9 11  1  0      
 11 12  1  0      
M  END
>  <Bioactivity>
Sorbose is a ketose belonging to the group of sugars known as monosaccharides. It has a sweetness that is equivalent to sucrose (table sugar). The commercial production of vitamin C (ascorbic acid) of
ten begins with sorbose. L-Sorbose is the configuration of the naturally occurring sugar.

>  <CAS>
87-79-6

>  <Col>
11

>  <Formula>
C6H12O6

>  <ID>
T2976

>  <Index>
240

>  <MOLENAME>
L(-)-sorbose

>  <MolWt>
180.16

>  <Pathways>
Others

>  <Plate>
PLATE 003

>  <QR code>
1151476973

>  <Receptor>
Others

>  <Reference>
1. Mandlaa, et al. J Ind Microbiol Biotechnol. 2015 Jun;42(6):897-904.

>  <Row>
H

>  <SMILES>
OCC(O)C(O)C(O)C(=O)CO

>  <Target>
Others

>  <Weight>
10.4mg

$$$$
Lab-1.sdf
  ChemDraw05232018482D

 29 32  0  0  0  0  0  0  0  0999 V2000
   -4.6387    0.0000    0.0000 C   0  0  0  0  0  0  0  0  0  0  0  0
   -3.8214    0.0000    0.0000 C   0  0  0  0  0  0  0  0  0  0  0  0
   -3.3150    0.0000    0.0000 C   0  0  0  0  0  0  0  0  0  0  0  0
   -3.5105    0.0000    0.0000 C   0  0  0  0  0  0  0  0  0  0  0  0
   -4.0168    0.0000    0.0000 C   0  0  0  0  0  0  0  0  0  0  0  0
   -2.6932    0.0000    0.0000 C   0  0  0  0  0  0  0  0  0  0  0  0
   -2.3823    0.0000    0.0000 C   0  0  0  0  0  0  0  0  0  0  0  0
   -1.5651    0.0000    0.0000 C   0  0  0  0  0  0  0  0  0  0  0  0
   -1.2542    0.0000    0.0000 C   0  0  0  0  0  0  0  0  0  0  0  0
   -1.0587    0.0000    0.0000 C   0  0  0  0  0  0  0  0  0  0  0  0
   -1.2880    0.0000    0.0000 C   0  0  0  0  0  0  0  0  0  0  0  0
   -0.6052    0.0000    0.0000 C   0  0  0  0  0  0  0  0  0  0  0  0
    0.0462    0.0000    0.0000 C   0  0  0  0  0  0  0  0  0  0  0  0
    0.8584    0.0000    0.0000 C   0  0  0  0  0  0  0  0  0  0  0  0
    1.1386    0.0000    0.0000 C   0  0  0  0  0  0  0  0  0  0  0  0
    1.9508    0.0000    0.0000 C   0  0  0  0  0  0  0  0  0  0  0  0
    2.4826    0.0000    0.0000 C   0  0  0  0  0  0  0  0  0  0  0  0
    3.2947    0.0000    0.0000 C   0  0  0  0  0  0  0  0  0  0  0  0
    3.8265    0.0000    0.0000 C   0  0  0  0  0  0  0  0  0  0  0  0
    4.6387    0.0000    0.0000 O   0  0  0  0  0  0  0  0  0  0  0  0
    3.5462    0.0000    0.0000 C   0  0  0  0  0  0  0  0  0  0  0  0
    2.7341    0.0000    0.0000 C   0  0  0  0  0  0  0  0  0  0  0  0
    2.2023    0.0000    0.0000 C   0  0  0  0  0  0  0  0  0  0  0  0
    1.9220    0.0000    0.0000 C   0  0  0  0  0  0  0  0  0  0  0  0
    1.3902    0.0000    0.0000 C   0  0  0  0  0  0  0  0  0  0  0  0
    1.1099    0.0000    0.0000 C   0  0  0  0  0  0  0  0  0  0  0  0
    0.2978    0.0000    0.0000 C   0  0  0  0  0  0  0  0  0  0  0  0
   -0.2342    0.0000    0.0000 C   0  0  0  0  0  0  0  0  0  0  0  0
   -0.5940    0.0000    0.0000 C   0  0  0  0  0  0  0  0  0  0  0  0
  1  2  1  0      
  2  3  1  0      
  2  4  1  0      
  4  5  1  0      
  6  4  1  4      
  6  7  2  0      
  7  8  1  0      
  8  9  1  0      
  8 10  1  0      
 10 11  1  0      
 11 12  1  0      
 12 13  1  0      
 13 14  1  0      
 14 15  2  0      
 15 16  1  0      
 16 17  2  0      
 17 18  1  0      
 18 19  1  0      
 19 20  1  0      
 19 21  1  0      
 21 22  1  0      
 22 23  1  0      
 17 23  1  0      
 23 24  1  0      
 23 25  1  0      
 14 25  1  0      
 25 26  1  0      
 26 27  1  0      
 27 28  1  0      
 10 28  1  0      
 13 28  1  0      
 28 29  1  0      
M  END
>  <Bioactivity>
Extracted from Ganoderma lucidum cystocarp;Store the product in sealed, cool and dry condition.

>  <CAS>
57-87-4

>  <Col>
2

>  <Formula>
C28H44O

>  <ID>
T2912

>  <Index>
241

>  <MOLENAME>
Ergosterol

>  <MolWt>
396.66

>  <Pathways>
Others

>  <Plate>
PLATE 004

>  <QR code>
1151476865

>  <Receptor>
Others

>  <Reference>
1. Haubrich BA, et al. J Lipid Res. 2015 Feb;56(2):331-41. 

>  <Row>
A

>  <SMILES>
CC(C)C(C)C=CC(C)C1CCC2C3=CC=C4CC(O)CCC4(C)C3CCC12C

>  <Target>
Others

>  <Weight>
10.4mg

$$$$
Lab-1.sdf
  ChemDraw05232018482D

 15 17  0  0  0  0  0  0  0  0999 V2000
   -0.0000    0.0000    0.0000 O   0  0  0  0  0  0  0  0  0  0  0  0
   -0.0000    0.0000    0.0000 C   0  0  0  0  0  0  0  0  0  0  0  0
    0.7145    0.0000    0.0000 C   0  0  0  0  0  0  0  0  0  0  0  0
    1.4290    0.0000    0.0000 C   0  0  0  0  0  0  0  0  0  0  0  0
    2.1434    0.0000    0.0000 C   0  0  0  0  0  0  0  0  0  0  0  0
    2.1434    0.0000    0.0000 C   0  0  0  0  0  0  0  0  0  0  0  0
    1.4290    0.0000    0.0000 C   0  0  0  0  0  0  0  0  0  0  0  0
    0.7145    0.0000    0.0000 C   0  0  0  0  0  0  0  0  0  0  0  0
   -0.0000    0.0000    0.0000 O   0  0  0  0  0  0  0  0  0  0  0  0
   -0.7145    0.0000    0.0000 C   0  0  0  0  0  0  0  0  0  0  0  0
   -1.4289    0.0000    0.0000 C   0  0  0  0  0  0  0  0  0  0  0  0
   -2.1434    0.0000    0.0000 C   0  0  0  0  0  0  0  0  0  0  0  0
   -2.1434    0.0000    0.0000 C   0  0  0  0  0  0  0  0  0  0  0  0
   -1.4289    0.0000    0.0000 C   0  0  0  0  0  0  0  0  0  0  0  0
   -0.7145    0.0000    0.0000 C   0  0  0  0  0  0  0  0  0  0  0  0
  1  2  2  0      
  2  3  1  0      
  3  4  2  0      
  4  5  1  0      
  5  6  2  0      
  6  7  1  0      
  7  8  2  0      
  3  8  1  0      
  8  9  1  0      
  9 10  1  0      
 10 11  2  0      
 11 12  1  0      
 12 13  2  0      
 13 14  1  0      
 14 15  2  0      
  2 15  1  0      
 10 15  1  0      
M  END
>  <Bioactivity>
Xanthone is an organic compound  and can be prepared by the heating of phenyl salicylate. In 1939, xanthone was introduced as an insecticide and it currently finds uses as ovicide for codling moth egg
s and as a larvicide.

>  <CAS>
90-47-1

>  <Col>
3

>  <Formula>
C13H8O2

>  <ID>
T2982

>  <Index>
242

>  <MOLENAME>
Xanthone

>  <MolWt>
196.21

>  <Pathways>
Microbiology & Virology

>  <Plate>
PLATE 004

>  <QR code>
1151476864

>  <Receptor>
Others

>  <Reference>
1. ltamany EE, et al. Bioorg Med Chem Lett. 2014 Nov 1;24(21):4939-42. 

>  <Row>
A

>  <SMILES>
O=C1C2=CC=CC=C2OC2=CC=CC=C12

>  <Target>
Antifungal

>  <Weight>
9.8mg

$$$$
Lab-1.sdf
  ChemDraw05232018482D

 13 14  0  0  0  0  0  0  0  0999 V2000
   -0.3573    0.0000    0.0000 O   0  0  0  0  0  0  0  0  0  0  0  0
   -0.3573    0.0000    0.0000 C   0  0  0  0  0  0  0  0  0  0  0  0
   -1.0717    0.0000    0.0000 C   0  0  0  0  0  0  0  0  0  0  0  0
   -1.0717    0.0000    0.0000 C   0  0  0  0  0  0  0  0  0  0  0  0
   -1.7861    0.0000    0.0000 O   0  0  0  0  0  0  0  0  0  0  0  0
   -0.3573    0.0000    0.0000 C   0  0  0  0  0  0  0  0  0  0  0  0
   -0.3573    0.0000    0.0000 O   0  0  0  0  0  0  0  0  0  0  0  0
    0.3572    0.0000    0.0000 C   0  0  0  0  0  0  0  0  0  0  0  0
    1.0717    0.0000    0.0000 C   0  0  0  0  0  0  0  0  0  0  0  0
    1.7861    0.0000    0.0000 C   0  0  0  0  0  0  0  0  0  0  0  0
    1.7861    0.0000    0.0000 C   0  0  0  0  0  0  0  0  0  0  0  0
    1.0717    0.0000    0.0000 C   0  0  0  0  0  0  0  0  0  0  0  0
    0.3572    0.0000    0.0000 C   0  0  0  0  0  0  0  0  0  0  0  0
  1  2  1  0      
  2  3  2  0      
  3  4  1  0      
  4  5  2  0      
  4  6  1  0      
  6  7  2  0      
  6  8  1  0      
  8  9  2  0      
  9 10  1  0      
 10 11  2  0      
 11 12  1  0      
 12 13  2  0      
  2 13  1  0      
  8 13  1  0      
M  END
>  <Bioactivity>
Lawsone (2-hydroxy-1,4-naphthoquinone), also known as hennotannic acid, is a red-orange dye present in the leaves of the henna plant (Lawsonia inermis) as well as in the flower of water hyacinth (Eich
hornia crassipes).

>  <CAS>
83-72-7

>  <Col>
4

>  <Formula>
C10H6O3

>  <ID>
T2969

>  <Index>
243

>  <MOLENAME>
Lawsone

>  <MolWt>
174.16

>  <Pathways>
Others

>  <Plate>
PLATE 004

>  <QR code>
1151476863

>  <Receptor>
Others

>  <Reference>
1. Munt DJ, et al. AAPS PharmSciTech. 2015 Dec;16(6):1425-33.

>  <Row>
A

>  <SMILES>
OC1=CC(=O)C(=O)C2=CC=CC=C12

>  <Target>
Others

>  <Weight>
10.3mg

$$$$
Lab-1.sdf
  ChemDraw05232018482D

 23 24  0  0  0  0  0  0  0  0999 V2000
   -2.1434    0.0000    0.0000 O   0  0  0  0  0  0  0  0  0  0  0  0
   -1.4290    0.0000    0.0000 C   0  0  0  0  0  0  0  0  0  0  0  0
   -1.4290    0.0000    0.0000 C   0  0  0  0  0  0  0  0  0  0  0  0
   -0.7145    0.0000    0.0000 O   0  0  0  0  0  0  0  0  0  0  0  0
   -0.7145    0.0000    0.0000 C   0  0  0  0  0  0  0  0  0  0  0  0
   -0.0000    0.0000    0.0000 O   0  0  0  0  0  0  0  0  0  0  0  0
    0.7144    0.0000    0.0000 C   0  0  0  0  0  0  0  0  0  0  0  0
    0.7144    0.0000    0.0000 C   0  0  0  0  0  0  0  0  0  0  0  0
   -0.0000    0.0000    0.0000 O   0  0  0  0  0  0  0  0  0  0  0  0
    1.4289    0.0000    0.0000 C   0  0  0  0  0  0  0  0  0  0  0  0
    1.4289    0.0000    0.0000 O   0  0  0  0  0  0  0  0  0  0  0  0
    2.1434    0.0000    0.0000 C   0  0  0  0  0  0  0  0  0  0  0  0
    2.8579    0.0000    0.0000 O   0  0  0  0  0  0  0  0  0  0  0  0
    2.1434    0.0000    0.0000 O   0  0  0  0  0  0  0  0  0  0  0  0
    1.4289    0.0000    0.0000 C   0  0  0  0  0  0  0  0  0  0  0  0
    1.4289    0.0000    0.0000 C   0  0  0  0  0  0  0  0  0  0  0  0
    0.7144    0.0000    0.0000 O   0  0  0  0  0  0  0  0  0  0  0  0
   -1.4290    0.0000    0.0000 C   0  0  0  0  0  0  0  0  0  0  0  0
   -1.4290    0.0000    0.0000 O   0  0  0  0  0  0  0  0  0  0  0  0
   -2.1434    0.0000    0.0000 C   0  0  0  0  0  0  0  0  0  0  0  0
   -2.8579    0.0000    0.0000 O   0  0  0  0  0  0  0  0  0  0  0  0
   -2.1434    0.0000    0.0000 C   0  0  0  0  0  0  0  0  0  0  0  0
   -2.8579    0.0000    0.0000 O   0  0  0  0  0  0  0  0  0  0  0  0
  1  2  1  0      
  2  3  1  0      
  3  4  1  0      
  4  5  1  0      
  5  6  1  0      
  6  7  1  0      
  7  8  1  0      
  8  9  1  0      
  8 10  1  0      
 10 11  1  0      
 10 12  1  0      
 12 13  1  0      
 12 14  1  0      
 14 15  1  0      
  7 15  1  0      
 15 16  1  0      
 16 17  1  0      
  5 18  1  0      
 18 19  1  0      
 18 20  1  0      
 20 21  1  0      
 20 22  1  0      
  3 22  1  0      
 22 23  1  0      
M  END
>  <Bioactivity>
Cellobiose is a disaccharide, a reducing sugar, consists of two ¦Â-glucose molecules linked by a ¦Â(1¡ú4) bond. It can be hydrolyzed to glucose enzymatically or with acid.

>  <CAS>
528-50-7

>  <Col>
5

>  <Formula>
C12H22O11

>  <ID>
T2880

>  <Index>
244

>  <MOLENAME>
D-Cellobiose

>  <MolWt>
342.3

>  <Pathways>
Others

>  <Plate>
PLATE 004

>  <QR code>
1151476862

>  <Receptor>
Others

>  <Reference>
1. Amarasekara AS, et al. Carbohydr Res. 2011 Dec 13;346(17):2820-2.

>  <Row>
A

>  <SMILES>
OCC1OC(OC2C(O)C(O)C(O)OC2CO)C(O)C(O)C1O

>  <Target>
Others

>  <Weight>
10.2mg

$$$$
Lab-1.sdf
  ChemDraw05232018482D

 16 18  0  0  0  0  0  0  0  0999 V2000
   -2.7059    0.0000    0.0000 C   0  0  0  0  0  0  0  0  0  0  0  0
   -2.1539    0.0000    0.0000 O   0  0  0  0  0  0  0  0  0  0  0  0
   -1.3469    0.0000    0.0000 C   0  0  0  0  0  0  0  0  0  0  0  0
   -0.7949    0.0000    0.0000 C   0  0  0  0  0  0  0  0  0  0  0  0
    0.0120    0.0000    0.0000 C   0  0  0  0  0  0  0  0  0  0  0  0
    0.6794    0.0000    0.0000 N   0  0  0  0  0  0  0  0  0  0  0  0
    1.3469    0.0000    0.0000 C   0  0  0  0  0  0  0  0  0  0  0  0
    2.1538    0.0000    0.0000 C   0  0  0  0  0  0  0  0  0  0  0  0
    2.4088    0.0000    0.0000 C   0  0  0  0  0  0  0  0  0  0  0  0
    2.7059    0.0000    0.0000 N   0  0  0  0  0  0  0  0  0  0  0  0
    2.4509    0.0000    0.0000 C   0  0  0  0  0  0  0  0  0  0  0  0
    1.6440    0.0000    0.0000 C   0  0  0  0  0  0  0  0  0  0  0  0
    1.0919    0.0000    0.0000 C   0  0  0  0  0  0  0  0  0  0  0  0
    0.2669    0.0000    0.0000 C   0  0  0  0  0  0  0  0  0  0  0  0
   -0.2851    0.0000    0.0000 C   0  0  0  0  0  0  0  0  0  0  0  0
   -1.0920    0.0000    0.0000 C   0  0  0  0  0  0  0  0  0  0  0  0
  1  2  1  0      
  2  3  1  0      
  3  4  2  0      
  4  5  1  0      
  5  6  2  0      
  6  7  1  0      
  7  8  2  0      
  8  9  1  0      
  8 10  1  0      
 10 11  1  0      
 11 12  1  0      
 12 13  1  0      
  7 13  1  0      
 13 14  2  0      
  5 14  1  0      
 14 15  1  0      
 15 16  2  0      
  3 16  1  0      
M  END
>  <Bioactivity>
Harmaline is a fluorescent psychoactive indole alkaloid from the group of harmala alkaloids and beta-carbolines. It is the reduced hydrogenated form of harmine.

>  <CAS>
304-21-2

>  <Col>
6

>  <Formula>
C13H14N2O

>  <ID>
T2797

>  <Index>
245

>  <MOLENAME>
Harmaline

>  <MolWt>
214.27

>  <Pathways>
Others

>  <Plate>
PLATE 004

>  <QR code>
1151476861

>  <Receptor>
Others

>  <Reference>
1. Zheng XY, et al. Archives of Pharmacological Research 32 (9): 1245?1251.

>  <Row>
A

>  <SMILES>
COC1=CC2=NC3=C(C)NCCC3=C2C=C1

>  <Target>
Others

>  <Weight>
9.9mg

$$$$
Lab-1.sdf
  ChemDraw05232018482D

 25 28  0  0  0  0  0  0  0  0999 V2000
   -1.8788    0.0000    0.0000 C   0  0  0  0  0  0  0  0  0  0  0  0
   -1.5190    0.0000    0.0000 C   0  0  0  0  0  0  0  0  0  0  0  0
   -0.9871    0.0000    0.0000 C   0  0  0  0  0  0  0  0  0  0  0  0
   -0.1750    0.0000    0.0000 C   0  0  0  0  0  0  0  0  0  0  0  0
    0.1053    0.0000    0.0000 C   0  0  0  0  0  0  0  0  0  0  0  0
   -0.4265    0.0000    0.0000 C   0  0  0  0  0  0  0  0  0  0  0  0
   -0.1463    0.0000    0.0000 C   0  0  0  0  0  0  0  0  0  0  0  0
    0.6659    0.0000    0.0000 C   0  0  0  0  0  0  0  0  0  0  0  0
    1.1977    0.0000    0.0000 C   0  0  0  0  0  0  0  0  0  0  0  0
    2.0098    0.0000    0.0000 C   0  0  0  0  0  0  0  0  0  0  0  0
    2.5417    0.0000    0.0000 C   0  0  0  0  0  0  0  0  0  0  0  0
    3.3538    0.0000    0.0000 O   0  0  0  0  0  0  0  0  0  0  0  0
    2.2614    0.0000    0.0000 C   0  0  0  0  0  0  0  0  0  0  0  0
    1.4492    0.0000    0.0000 C   0  0  0  0  0  0  0  0  0  0  0  0
    0.9174    0.0000    0.0000 C   0  0  0  0  0  0  0  0  0  0  0  0
    0.6371    0.0000    0.0000 C   0  0  0  0  0  0  0  0  0  0  0  0
   -1.2387    0.0000    0.0000 C   0  0  0  0  0  0  0  0  0  0  0  0
   -1.8900    0.0000    0.0000 C   0  0  0  0  0  0  0  0  0  0  0  0
   -2.5729    0.0000    0.0000 C   0  0  0  0  0  0  0  0  0  0  0  0
   -2.3436    0.0000    0.0000 C   0  0  0  0  0  0  0  0  0  0  0  0
   -3.1045    0.0000    0.0000 O   0  0  0  0  0  0  0  0  0  0  0  0
   -2.4650    0.0000    0.0000 C   0  0  0  0  0  0  0  0  0  0  0  0
   -1.8189    0.0000    0.0000 O   0  0  0  0  0  0  0  0  0  0  0  0
   -3.2324    0.0000    0.0000 C   0  0  0  0  0  0  0  0  0  0  0  0
   -3.3538    0.0000    0.0000 O   0  0  0  0  0  0  0  0  0  0  0  0
  1  2  1  0      
  2  3  1  0      
  3  4  1  0      
  4  5  1  0      
  5  6  1  0      
  6  7  1  0      
  7  8  1  0      
  8  9  1  0      
  9 10  2  0      
 10 11  1  0      
 11 12  2  0      
 11 13  1  0      
 13 14  1  0      
 14 15  1  0      
  5 15  1  0      
  9 15  1  0      
 15 16  1  0      
  6 17  1  0      
  2 17  1  0      
 17 18  1  0      
 18 19  1  0      
 19 20  1  0      
  2 20  1  0      
 20 21  1  0      
 20 22  1  0      
 22 23  2  0      
 22 24  1  0      
 24 25  1  0      
M  END
>  <Bioactivity>
Cortodoxone is a glucocorticoid steroid hormone that can be oxygenated to cortisol (Hydrocortisone).

>  <CAS>
152-58-9

>  <Col>
7

>  <Formula>
C21H30O4

>  <ID>
T2748

>  <Index>
246

>  <MOLENAME>
Cortodoxone

>  <MolWt>
346.47

>  <Pathways>
Endocrinology/ Hormones

>  <Plate>
PLATE 004

>  <QR code>
1151476860

>  <Receptor>
Glucocorticoid receptor 

>  <Reference>
1. Trifu V, et al. Br J Dermatol. 2011 Jul;165(1):177-83.

>  <Row>
A

>  <SMILES>
CC12CCC3C(CCC4=CC(=O)CCC34C)C1CCC2(O)C(=O)CO

>  <Target>
Glucocorticoid Receptor antagonist

>  <Weight>
10.4mg

$$$$
Lab-1.sdf
  ChemDraw05232018482D

 23 23  0  0  0  0  0  0  0  0999 V2000
   -3.2150    0.0000    0.0000 O   0  0  0  0  0  0  0  0  0  0  0  0
   -2.5005    0.0000    0.0000 C   0  0  0  0  0  0  0  0  0  0  0  0
   -2.5005    0.0000    0.0000 C   0  0  0  0  0  0  0  0  0  0  0  0
   -1.7860    0.0000    0.0000 O   0  0  0  0  0  0  0  0  0  0  0  0
   -1.7860    0.0000    0.0000 C   0  0  0  0  0  0  0  0  0  0  0  0
   -1.0717    0.0000    0.0000 O   0  0  0  0  0  0  0  0  0  0  0  0
   -0.3572    0.0000    0.0000 C   0  0  0  0  0  0  0  0  0  0  0  0
    0.3573    0.0000    0.0000 C   0  0  0  0  0  0  0  0  0  0  0  0
    0.3573    0.0000    0.0000 O   0  0  0  0  0  0  0  0  0  0  0  0
    1.0717    0.0000    0.0000 C   0  0  0  0  0  0  0  0  0  0  0  0
    1.0717    0.0000    0.0000 O   0  0  0  0  0  0  0  0  0  0  0  0
    1.7861    0.0000    0.0000 C   0  0  0  0  0  0  0  0  0  0  0  0
    1.7861    0.0000    0.0000 O   0  0  0  0  0  0  0  0  0  0  0  0
    2.5006    0.0000    0.0000 C   0  0  0  0  0  0  0  0  0  0  0  0
    2.5006    0.0000    0.0000 O   0  0  0  0  0  0  0  0  0  0  0  0
    3.2151    0.0000    0.0000 C   0  0  0  0  0  0  0  0  0  0  0  0
    3.9295    0.0000    0.0000 O   0  0  0  0  0  0  0  0  0  0  0  0
   -2.5005    0.0000    0.0000 C   0  0  0  0  0  0  0  0  0  0  0  0
   -2.5005    0.0000    0.0000 O   0  0  0  0  0  0  0  0  0  0  0  0
   -3.2150    0.0000    0.0000 C   0  0  0  0  0  0  0  0  0  0  0  0
   -3.9295    0.0000    0.0000 O   0  0  0  0  0  0  0  0  0  0  0  0
   -3.2150    0.0000    0.0000 C   0  0  0  0  0  0  0  0  0  0  0  0
   -3.9295    0.0000    0.0000 O   0  0  0  0  0  0  0  0  0  0  0  0
  1  2  1  0      
  2  3  1  0      
  3  4  1  0      
  4  5  1  0      
  5  6  1  0      
  6  7  1  0      
  7  8  1  0      
  8  9  1  0      
  8 10  1  0      
 10 11  1  0      
 10 12  1  0      
 12 13  1  0      
 12 14  1  0      
 14 15  1  0      
 14 16  1  0      
 16 17  2  0      
  5 18  1  0      
 18 19  1  0      
 18 20  1  0      
 20 21  1  0      
 20 22  1  0      
  3 22  1  0      
 22 23  1  0      
M  END
>  <Bioactivity>
Melibiose is a reducing disaccharide formed by an alpha-1,6 linkage between galactose and glucose (D-Gal-¦Á(1¡ú6)-D-Glc).

>  <CAS>
585-99-9

>  <Col>
8

>  <Formula>
C12H22O11

>  <ID>
T2914

>  <Index>
247

>  <MOLENAME>
Melibiose

>  <MolWt>
342.3

>  <Pathways>
Others

>  <Plate>
PLATE 004

>  <QR code>
1151476859

>  <Receptor>
Others

>  <Reference>
1. Hariharan P, Guan L. J Biol Chem. 2014 Nov 21;289(47):33012-9.

>  <Row>
A

>  <SMILES>
OCC1OC(OCC(O)C(O)C(O)C(O)C=O)C(O)C(O)C1O

>  <Target>
Others

>  <Weight>
10.2mg

$$$$
Lab-1.sdf
  ChemDraw05232018482D

 12 11  0  0  0  0  0  0  0  0999 V2000
    1.4290    0.0000    0.0000 N   0  0  0  0  0  0  0  0  0  0  0  0
    1.4290    0.0000    0.0000 C   0  0  0  0  0  0  0  0  0  0  0  0
    0.7145    0.0000    0.0000 C   0  0  0  0  0  0  0  0  0  0  0  0
   -0.0000    0.0000    0.0000 C   0  0  0  0  0  0  0  0  0  0  0  0
   -0.7145    0.0000    0.0000 C   0  0  0  0  0  0  0  0  0  0  0  0
   -1.4289    0.0000    0.0000 N   0  0  0  0  0  0  0  0  0  0  0  0
   -2.1433    0.0000    0.0000 C   0  0  0  0  0  0  0  0  0  0  0  0
   -2.8578    0.0000    0.0000 N   0  0  0  0  0  0  0  0  0  0  0  0
   -2.1433    0.0000    0.0000 O   0  0  0  0  0  0  0  0  0  0  0  0
    2.1433    0.0000    0.0000 C   0  0  0  0  0  0  0  0  0  0  0  0
    2.8578    0.0000    0.0000 O   0  0  0  0  0  0  0  0  0  0  0  0
    2.1433    0.0000    0.0000 O   0  0  0  0  0  0  0  0  0  0  0  0
  1  2  1  0      
  2  3  1  0      
  3  4  1  0      
  4  5  1  0      
  5  6  1  0      
  6  7  1  0      
  7  8  1  0      
  7  9  2  0      
  2 10  1  0      
 10 11  1  0      
 10 12  2  0      
M  END
>  <Bioactivity>
The organic compound citrulline is an ¦Á-amino acid. Its name is derived from citrullus, the Latin word for watermelon, from which it was first isolated in 1914 by Koga & Odake. 

>  <CAS>
627-77-0

>  <Col>
9

>  <Formula>
C6H13N3O3

>  <ID>
T2931

>  <Index>
248

>  <MOLENAME>
Citrulline

>  <MolWt>
175.19

>  <Pathways>
Others

>  <Plate>
PLATE 004

>  <QR code>
1151476858

>  <Receptor>
Others

>  <Reference>
1. Cusumano ZT, Caparon MG. J Bacteriol. 2015 Apr;197(7):1288-96.

>  <Row>
A

>  <SMILES>
NC(CCCNC(N)=O)C(O)=O

>  <Target>
Others

>  <Weight>
10.1mg

$$$$
Lab-1.sdf
  ChemDraw05232018482D

 26 29  0  0  0  0  0  0  0  0999 V2000
   -1.8788    0.0000    0.0000 C   0  0  0  0  0  0  0  0  0  0  0  0
   -1.5190    0.0000    0.0000 C   0  0  0  0  0  0  0  0  0  0  0  0
   -0.9871    0.0000    0.0000 C   0  0  0  0  0  0  0  0  0  0  0  0
   -0.1750    0.0000    0.0000 C   0  0  0  0  0  0  0  0  0  0  0  0
    0.3568    0.0000    0.0000 O   0  0  0  0  0  0  0  0  0  0  0  0
    0.1053    0.0000    0.0000 C   0  0  0  0  0  0  0  0  0  0  0  0
   -0.4265    0.0000    0.0000 C   0  0  0  0  0  0  0  0  0  0  0  0
   -0.1463    0.0000    0.0000 C   0  0  0  0  0  0  0  0  0  0  0  0
    0.6659    0.0000    0.0000 C   0  0  0  0  0  0  0  0  0  0  0  0
    1.1977    0.0000    0.0000 C   0  0  0  0  0  0  0  0  0  0  0  0
    2.0098    0.0000    0.0000 C   0  0  0  0  0  0  0  0  0  0  0  0
    2.5417    0.0000    0.0000 C   0  0  0  0  0  0  0  0  0  0  0  0
    3.3538    0.0000    0.0000 O   0  0  0  0  0  0  0  0  0  0  0  0
    2.2614    0.0000    0.0000 C   0  0  0  0  0  0  0  0  0  0  0  0
    1.4492    0.0000    0.0000 C   0  0  0  0  0  0  0  0  0  0  0  0
    0.9174    0.0000    0.0000 C   0  0  0  0  0  0  0  0  0  0  0  0
    0.6371    0.0000    0.0000 C   0  0  0  0  0  0  0  0  0  0  0  0
   -1.2387    0.0000    0.0000 C   0  0  0  0  0  0  0  0  0  0  0  0
   -1.8900    0.0000    0.0000 C   0  0  0  0  0  0  0  0  0  0  0  0
   -2.5729    0.0000    0.0000 C   0  0  0  0  0  0  0  0  0  0  0  0
   -2.3436    0.0000    0.0000 C   0  0  0  0  0  0  0  0  0  0  0  0
   -3.1045    0.0000    0.0000 O   0  0  0  0  0  0  0  0  0  0  0  0
   -2.4650    0.0000    0.0000 C   0  0  0  0  0  0  0  0  0  0  0  0
   -1.8189    0.0000    0.0000 O   0  0  0  0  0  0  0  0  0  0  0  0
   -3.2324    0.0000    0.0000 C   0  0  0  0  0  0  0  0  0  0  0  0
   -3.3538    0.0000    0.0000 O   0  0  0  0  0  0  0  0  0  0  0  0
  1  2  1  0      
  2  3  1  0      
  3  4  1  0      
  4  5  2  0      
  4  6  1  0      
  6  7  1  0      
  7  8  1  0      
  8  9  1  0      
  9 10  1  0      
 10 11  2  0      
 11 12  1  0      
 12 13  2  0      
 12 14  1  0      
 14 15  1  0      
 15 16  1  0      
  6 16  1  0      
 10 16  1  0      
 16 17  1  0      
  7 18  1  0      
  2 18  1  0      
 18 19  1  0      
 19 20  1  0      
 20 21  1  0      
  2 21  1  0      
 21 22  1  0      
 21 23  1  0      
 23 24  2  0      
 23 25  1  0      
 25 26  1  0      
M  END
>  <Bioactivity>
Cortisone is a 21-carbon steroid hormone. It is one of the main hormones released by the adrenal gland in response to stress. In chemical structure, it is a corticosteroid closely related to cortisol.
 

>  <CAS>
53-06-5

>  <Col>
10

>  <Formula>
C21H28O5

>  <ID>
T2884

>  <Index>
249

>  <MOLENAME>
Cortisone

>  <MolWt>
360.45

>  <Pathways>
Endocrinology/ Hormones

>  <Plate>
PLATE 004

>  <QR code>
1151476857

>  <Receptor>
Glucocorticoid Receptor

>  <Reference>
1. Yu J, et al. Eur J Pharmacol. 2015 Jan 5;746:158-66. 

>  <Row>
A

>  <SMILES>
CC12CC(=O)C3C(CCC4=CC(=O)CCC34C)C1CCC2(O)C(=O)CO

>  <Target>
Glucocorticoid Receptor agonist

>  <Weight>
10.4mg

$$$$
Lab-1.sdf
  ChemDraw05232018482D

 25 27  0  0  0  0  0  0  0  0999 V2000
   -2.9819    0.0000    0.0000 C   0  0  0  0  0  0  0  0  0  0  0  0
   -2.1749    0.0000    0.0000 C   0  0  0  0  0  0  0  0  0  0  0  0
   -1.9200    0.0000    0.0000 O   0  0  0  0  0  0  0  0  0  0  0  0
   -1.6229    0.0000    0.0000 C   0  0  0  0  0  0  0  0  0  0  0  0
   -1.8778    0.0000    0.0000 C   0  0  0  0  0  0  0  0  0  0  0  0
   -2.6848    0.0000    0.0000 O   0  0  0  0  0  0  0  0  0  0  0  0
   -1.3259    0.0000    0.0000 C   0  0  0  0  0  0  0  0  0  0  0  0
   -0.5188    0.0000    0.0000 C   0  0  0  0  0  0  0  0  0  0  0  0
    0.1485    0.0000    0.0000 O   0  0  0  0  0  0  0  0  0  0  0  0
    0.8160    0.0000    0.0000 C   0  0  0  0  0  0  0  0  0  0  0  0
    1.6229    0.0000    0.0000 C   0  0  0  0  0  0  0  0  0  0  0  0
    1.8779    0.0000    0.0000 C   0  0  0  0  0  0  0  0  0  0  0  0
    1.3258    0.0000    0.0000 C   0  0  0  0  0  0  0  0  0  0  0  0
    2.6849    0.0000    0.0000 O   0  0  0  0  0  0  0  0  0  0  0  0
    2.1750    0.0000    0.0000 C   0  0  0  0  0  0  0  0  0  0  0  0
    2.9819    0.0000    0.0000 O   0  0  0  0  0  0  0  0  0  0  0  0
    1.9200    0.0000    0.0000 C   0  0  0  0  0  0  0  0  0  0  0  0
    2.4721    0.0000    0.0000 C   0  0  0  0  0  0  0  0  0  0  0  0
    1.1131    0.0000    0.0000 C   0  0  0  0  0  0  0  0  0  0  0  0
    0.8581    0.0000    0.0000 O   0  0  0  0  0  0  0  0  0  0  0  0
    0.5610    0.0000    0.0000 C   0  0  0  0  0  0  0  0  0  0  0  0
   -0.2640    0.0000    0.0000 C   0  0  0  0  0  0  0  0  0  0  0  0
    0.0717    0.0000    0.0000 C   0  0  0  0  0  0  0  0  0  0  0  0
   -0.8159    0.0000    0.0000 C   0  0  0  0  0  0  0  0  0  0  0  0
   -0.5610    0.0000    0.0000 O   0  0  0  0  0  0  0  0  0  0  0  0
  1  2  1  0      
  2  3  2  0      
  2  4  1  0      
  4  5  1  0      
  5  6  2  0      
  5  7  1  0      
  7  8  2  0      
  8  9  1  0      
  9 10  1  0      
 10 11  2  0      
 11 12  1  0      
 12 13  1  0      
 12 14  2  0      
 11 15  1  0      
 15 16  1  0      
 15 17  2  0      
 17 18  1  0      
 17 19  1  0      
 19 20  1  0      
 19 21  2  0      
 10 21  1  0      
 21 22  1  0      
  8 22  1  0      
 22 23  1  0      
 22 24  1  0      
  4 24  1  0      
 24 25  2  0      
M  END
>  <Bioactivity>
Usnic acid is an antimicrobial,antitumor and enzyme inhibiting agent shown to uncouple oxidative phosphorylation in mouse-liver mitochondria. Usnic acid induces necrosis in certain cells.

>  <CAS>
125-46-2

>  <Col>
11

>  <Formula>
C18H16O7

>  <ID>
T2731

>  <Index>
250

>  <MOLENAME>
Usnic Acid

>  <MolWt>
344.32

>  <Pathways>
Ubiquitination

>  <Plate>
PLATE 004

>  <QR code>
1151476856

>  <Receptor>
Autophagy

>  <Reference>
1. Su ZQ, et al. Int Immunopharmacol. 2014 Oct;22(2):371-8. 

>  <Row>
A

>  <SMILES>
CC(=O)C1C(=O)C=C2OC3=C(C(C)=O)C(O)=C(C)C(O)=C3C2(C)C1=O

>  <Target>
Autophagy activator

>  <Weight>
10.2mg

$$$$
Lab-1.sdf
  ChemDraw05232018482D

 14 14  0  0  0  0  0  0  0  0999 V2000
   -1.4289    0.0000    0.0000 C   0  0  0  0  0  0  0  0  0  0  0  0
   -0.7145    0.0000    0.0000 C   0  0  0  0  0  0  0  0  0  0  0  0
   -0.7145    0.0000    0.0000 O   0  0  0  0  0  0  0  0  0  0  0  0
    0.0000    0.0000    0.0000 C   0  0  0  0  0  0  0  0  0  0  0  0
    0.7144    0.0000    0.0000 O   0  0  0  0  0  0  0  0  0  0  0  0
    0.0000    0.0000    0.0000 C   0  0  0  0  0  0  0  0  0  0  0  0
    0.7144    0.0000    0.0000 C   0  0  0  0  0  0  0  0  0  0  0  0
    1.4289    0.0000    0.0000 O   0  0  0  0  0  0  0  0  0  0  0  0
    0.7144    0.0000    0.0000 C   0  0  0  0  0  0  0  0  0  0  0  0
    0.0000    0.0000    0.0000 C   0  0  0  0  0  0  0  0  0  0  0  0
    0.0000    0.0000    0.0000 O   0  0  0  0  0  0  0  0  0  0  0  0
   -0.7145    0.0000    0.0000 C   0  0  0  0  0  0  0  0  0  0  0  0
   -0.7145    0.0000    0.0000 C   0  0  0  0  0  0  0  0  0  0  0  0
   -1.4289    0.0000    0.0000 C   0  0  0  0  0  0  0  0  0  0  0  0
  1  2  1  0      
  2  3  1  0      
  3  4  1  0      
  4  5  2  0      
  4  6  1  0      
  6  7  2  0      
  7  8  1  0      
  7  9  1  0      
  9 10  2  0      
 10 11  1  0      
 10 12  1  0      
 12 13  2  0      
  6 13  1  0      
 13 14  1  0      
M  END
>  <Bioactivity>
Orsellinic acid ethyl ester, more specifically o-orsellinic acid, is a phenolic acid. It is of importance in the biochemistry of lichens, from which it can be extracted.

>  <CAS>
2524-37-0

>  <Col>
2

>  <Formula>
C10H12O4

>  <ID>
T2784

>  <Index>
251

>  <MOLENAME>
Orsellinic acid ethyl ester

>  <MolWt>
196.2

>  <Pathways>
Others

>  <Plate>
PLATE 004

>  <QR code>
1151476844

>  <Receptor>
Others

>  <Reference>
1. Qi H, Chen J, Shi Y. Zhongguo Zhong Yao Za Zhi. 2011 Aug;36(16):2233-5. Chinese.

>  <Row>
B

>  <SMILES>
CCOC(=O)C1=C(O)C=C(O)C=C1C

>  <Target>
Others

>  <Weight>
10.1mg

$$$$
Lab-1.sdf
  ChemDraw05232018482D

 18 20  0  0  0  0  0  0  0  0999 V2000
   -2.8578    0.0000    0.0000 O   0  0  0  0  0  0  0  0  0  0  0  0
   -2.1434    0.0000    0.0000 C   0  0  0  0  0  0  0  0  0  0  0  0
   -1.4290    0.0000    0.0000 C   0  0  0  0  0  0  0  0  0  0  0  0
   -0.7145    0.0000    0.0000 C   0  0  0  0  0  0  0  0  0  0  0  0
   -0.7145    0.0000    0.0000 C   0  0  0  0  0  0  0  0  0  0  0  0
   -0.0001    0.0000    0.0000 O   0  0  0  0  0  0  0  0  0  0  0  0
    0.7145    0.0000    0.0000 C   0  0  0  0  0  0  0  0  0  0  0  0
    0.7145    0.0000    0.0000 C   0  0  0  0  0  0  0  0  0  0  0  0
   -0.0001    0.0000    0.0000 C   0  0  0  0  0  0  0  0  0  0  0  0
   -0.0001    0.0000    0.0000 O   0  0  0  0  0  0  0  0  0  0  0  0
    1.4289    0.0000    0.0000 C   0  0  0  0  0  0  0  0  0  0  0  0
    1.4289    0.0000    0.0000 C   0  0  0  0  0  0  0  0  0  0  0  0
    2.1434    0.0000    0.0000 C   0  0  0  0  0  0  0  0  0  0  0  0
    2.8578    0.0000    0.0000 C   0  0  0  0  0  0  0  0  0  0  0  0
    2.8578    0.0000    0.0000 C   0  0  0  0  0  0  0  0  0  0  0  0
    2.1434    0.0000    0.0000 C   0  0  0  0  0  0  0  0  0  0  0  0
   -1.4290    0.0000    0.0000 C   0  0  0  0  0  0  0  0  0  0  0  0
   -2.1434    0.0000    0.0000 C   0  0  0  0  0  0  0  0  0  0  0  0
  1  2  1  0      
  2  3  2  0      
  3  4  1  0      
  4  5  2  0      
  5  6  1  0      
  6  7  1  0      
  7  8  2  0      
  8  9  1  0      
  4  9  1  0      
  9 10  2  0      
  7 11  1  0      
 11 12  2  0      
 12 13  1  0      
 13 14  2  0      
 14 15  1  0      
 15 16  2  0      
 11 16  1  0      
  5 17  1  0      
 17 18  2  0      
  2 18  1  0      
M  END
>  <Bioactivity>
6-Hydroxyflavone is a flavone, a type of chemical compound. It is one of the noncompetitive inhibitors of cytochrome P450 2C9. It is reported in leaves of Barleria prionitis Linn. (a common Acanthacea
e from India).[1] 6-Hydroxyflavone may have a potential as a therapeutic drug capable for the treatment of anxiety-like disorders.

>  <CAS>
6665-83-4

>  <Col>
3

>  <Formula>
C15H10O3

>  <ID>
T2940

>  <Index>
252

>  <MOLENAME>
6-Hydroxyflavone

>  <MolWt>
238.25

>  <Pathways>
Others

>  <Plate>
PLATE 004

>  <QR code>
1151476845

>  <Receptor>
Others

>  <Reference>
1. Wang X, et al. PLoS One. 2015 Mar 19;10(3):e0116409. 

>  <Row>
B

>  <SMILES>
OC1=CC2=C(OC(=CC2=O)C2=CC=CC=C2)C=C1

>  <Target>
Cytochrome P450 2C9

>  <Weight>
10.2mg

$$$$
Lab-1.sdf
  ChemDraw05232018482D

 13 11  0  0  0  0  0  0  0  0999 V2000
   -1.0902    0.0000    0.0000 N   0  0  0  0  0  0  0  0  0  0  0  0
   -1.9152    0.0000    0.0000 C   0  0  0  0  0  0  0  0  0  0  0  0
   -2.3277    0.0000    0.0000 C   0  0  0  0  0  0  0  0  0  0  0  0
   -3.1527    0.0000    0.0000 C   0  0  0  0  0  0  0  0  0  0  0  0
   -3.9777    0.0000    0.0000 N   0  0  0  0  0  0  0  0  0  0  0  0
    3.9777    0.0000    0.0000 O   0  0  0  0  0  0  0  0  0  0  0  0
    3.1527    0.0000    0.0000 C   0  0  0  0  0  0  0  0  0  0  0  0
    2.7402    0.0000    0.0000 O   0  0  0  0  0  0  0  0  0  0  0  0
    2.7402    0.0000    0.0000 C   0  0  0  0  0  0  0  0  0  0  0  0
    1.9152    0.0000    0.0000 C   0  0  0  0  0  0  0  0  0  0  0  0
    1.5027    0.0000    0.0000 C   0  0  0  0  0  0  0  0  0  0  0  0
    1.9152    0.0000    0.0000 O   0  0  0  0  0  0  0  0  0  0  0  0
    0.6777    0.0000    0.0000 O   0  0  0  0  0  0  0  0  0  0  0  0
  1  2  1  0      
  2  3  1  0      
  3  4  1  0      
  4  5  3  0      
  6  7  1  0      
  7  8  2  0      
  9  7  1  4      
  9 10  2  0      
 10 11  1  0      
 11 12  1  0      
 11 13  2  0      
M  END
>  <Bioactivity>
N/A

>  <CAS>
2079-89-2

>  <Col>
4

>  <Formula>
C3H6N?1/2C4H4O4

>  <ID>
T2769

>  <Index>
253

>  <MOLENAME>
3-Aminopropionitrile fumarate

>  <MolWt>
114.12

>  <Pathways>
Others

>  <Plate>
PLATE 004

>  <QR code>
1151476846

>  <Receptor>
Others

>  <Reference>
1. Jia LX, et al. J Pathol. 2015 Jul;236(3):373-83. 

>  <Row>
B

>  <SMILES>
NCCC#N.OC(=O)C=CC(O)=O

>  <Target>
Others

>  <Weight>
10.3mg

$$$$
Lab-1.sdf
  ChemDraw05232018482D

 21 20  0  0  0  0  0  0  0  0999 V2000
   -6.0728    0.0000    0.0000 O   0  0  0  0  0  0  0  0  0  0  0  0
   -5.3584    0.0000    0.0000 C   0  0  0  0  0  0  0  0  0  0  0  0
   -4.6440    0.0000    0.0000 C   0  0  0  0  0  0  0  0  0  0  0  0
   -3.9295    0.0000    0.0000 C   0  0  0  0  0  0  0  0  0  0  0  0
   -3.2151    0.0000    0.0000 C   0  0  0  0  0  0  0  0  0  0  0  0
   -2.5006    0.0000    0.0000 C   0  0  0  0  0  0  0  0  0  0  0  0
   -1.7861    0.0000    0.0000 C   0  0  0  0  0  0  0  0  0  0  0  0
   -1.0717    0.0000    0.0000 C   0  0  0  0  0  0  0  0  0  0  0  0
   -1.0717    0.0000    0.0000 O   0  0  0  0  0  0  0  0  0  0  0  0
   -0.3573    0.0000    0.0000 C   0  0  0  0  0  0  0  0  0  0  0  0
   -0.3573    0.0000    0.0000 O   0  0  0  0  0  0  0  0  0  0  0  0
    0.3572    0.0000    0.0000 C   0  0  0  0  0  0  0  0  0  0  0  0
    1.0717    0.0000    0.0000 C   0  0  0  0  0  0  0  0  0  0  0  0
    1.7860    0.0000    0.0000 C   0  0  0  0  0  0  0  0  0  0  0  0
    2.5005    0.0000    0.0000 C   0  0  0  0  0  0  0  0  0  0  0  0
    3.2150    0.0000    0.0000 C   0  0  0  0  0  0  0  0  0  0  0  0
    3.9295    0.0000    0.0000 C   0  0  0  0  0  0  0  0  0  0  0  0
    4.6439    0.0000    0.0000 C   0  0  0  0  0  0  0  0  0  0  0  0
    5.3583    0.0000    0.0000 C   0  0  0  0  0  0  0  0  0  0  0  0
    6.0728    0.0000    0.0000 O   0  0  0  0  0  0  0  0  0  0  0  0
    5.3583    0.0000    0.0000 O   0  0  0  0  0  0  0  0  0  0  0  0
  1  2  1  0      
  2  3  1  0      
  3  4  1  0      
  4  5  1  0      
  5  6  1  0      
  6  7  1  0      
  7  8  1  0      
  8  9  1  0      
  8 10  1  0      
 10 11  1  0      
 10 12  1  0      
 12 13  1  0      
 13 14  1  0      
 14 15  1  0      
 15 16  1  0      
 16 17  1  0      
 17 18  1  0      
 18 19  1  0      
 19 20  1  0      
 19 21  2  0      
M  END
>  <Bioactivity>
Aleuritic acid, or ¦Á-aleuritic acid, is a major ingredient in shellac, constituting about 35% of it. It is used as a starting material in the perfume industry for the preparation of musk aroma.

>  <CAS>
533-87-9

>  <Col>
5

>  <Formula>
C16H32O5

>  <ID>
T2886

>  <Index>
254

>  <MOLENAME>
Aleuritic Acid

>  <MolWt>
304.43

>  <Pathways>
Others

>  <Plate>
PLATE 004

>  <QR code>
1151476847

>  <Receptor>
Others

>  <Reference>
1. Nyasse B, et al. Nat Prod Res. 2006 Apr;20(4):391-7.

>  <Row>
B

>  <SMILES>
OCCCCCCC(O)C(O)CCCCCCCC(O)=O

>  <Target>
Others

>  <Weight>
10.1mg

$$$$
Lab-1.sdf
  ChemDraw05232018482D

 14 14  0  0  0  0  0  0  0  0999 V2000
   -0.3573    0.0000    0.0000 C   0  0  0  0  0  0  0  0  0  0  0  0
    0.3572    0.0000    0.0000 O   0  0  0  0  0  0  0  0  0  0  0  0
    0.3572    0.0000    0.0000 C   0  0  0  0  0  0  0  0  0  0  0  0
    1.0716    0.0000    0.0000 C   0  0  0  0  0  0  0  0  0  0  0  0
    1.0716    0.0000    0.0000 C   0  0  0  0  0  0  0  0  0  0  0  0
    1.7861    0.0000    0.0000 O   0  0  0  0  0  0  0  0  0  0  0  0
    0.3572    0.0000    0.0000 C   0  0  0  0  0  0  0  0  0  0  0  0
    0.3572    0.0000    0.0000 C   0  0  0  0  0  0  0  0  0  0  0  0
    1.0716    0.0000    0.0000 C   0  0  0  0  0  0  0  0  0  0  0  0
   -0.3573    0.0000    0.0000 O   0  0  0  0  0  0  0  0  0  0  0  0
   -0.3573    0.0000    0.0000 C   0  0  0  0  0  0  0  0  0  0  0  0
   -1.0718    0.0000    0.0000 O   0  0  0  0  0  0  0  0  0  0  0  0
   -1.7861    0.0000    0.0000 C   0  0  0  0  0  0  0  0  0  0  0  0
   -0.3573    0.0000    0.0000 C   0  0  0  0  0  0  0  0  0  0  0  0
  1  2  1  0      
  2  3  1  0      
  3  4  2  0      
  4  5  1  0      
  5  6  1  0      
  5  7  2  0      
  7  8  1  0      
  8  9  1  0      
  8 10  2  0      
  7 11  1  0      
 11 12  1  0      
 12 13  1  0      
 11 14  2  0      
  3 14  1  0      
M  END
>  <Bioactivity>
Derivatives of xanthoxyline have antispasmodic activity.

>  <CAS>
90-24-4

>  <Col>
6

>  <Formula>
C10H12O4

>  <ID>
T2981

>  <Index>
255

>  <MOLENAME>
Xanthoxyline

>  <MolWt>
196.2

>  <Pathways>
Microbiology & Virology

>  <Plate>
PLATE 004

>  <QR code>
1151476848

>  <Receptor>
Others

>  <Reference>
1. Cechinel Filho V, et al. J Pharm Sci. 1995 Apr;84(4):473-5.

>  <Row>
B

>  <SMILES>
COC1=CC(O)=C(C(C)=O)C(OC)=C1

>  <Target>
Antifungal

>  <Weight>
10.4mg

$$$$
Lab-1.sdf
  ChemDraw05232018482D

 14 14  0  0  0  0  0  0  0  0999 V2000
   -0.7144    0.0000    0.0000 C   0  0  0  0  0  0  0  0  0  0  0  0
    0.0000    0.0000    0.0000 O   0  0  0  0  0  0  0  0  0  0  0  0
    0.0000    0.0000    0.0000 C   0  0  0  0  0  0  0  0  0  0  0  0
    0.7144    0.0000    0.0000 C   0  0  0  0  0  0  0  0  0  0  0  0
    0.7144    0.0000    0.0000 C   0  0  0  0  0  0  0  0  0  0  0  0
    1.4289    0.0000    0.0000 O   0  0  0  0  0  0  0  0  0  0  0  0
    1.4289    0.0000    0.0000 C   0  0  0  0  0  0  0  0  0  0  0  0
    0.0000    0.0000    0.0000 C   0  0  0  0  0  0  0  0  0  0  0  0
    0.0000    0.0000    0.0000 O   0  0  0  0  0  0  0  0  0  0  0  0
    0.7144    0.0000    0.0000 C   0  0  0  0  0  0  0  0  0  0  0  0
   -0.7144    0.0000    0.0000 C   0  0  0  0  0  0  0  0  0  0  0  0
   -0.7144    0.0000    0.0000 C   0  0  0  0  0  0  0  0  0  0  0  0
   -1.4289    0.0000    0.0000 C   0  0  0  0  0  0  0  0  0  0  0  0
   -1.4289    0.0000    0.0000 O   0  0  0  0  0  0  0  0  0  0  0  0
  1  2  1  0      
  2  3  1  0      
  3  4  2  0      
  4  5  1  0      
  5  6  1  0      
  6  7  1  0      
  5  8  2  0      
  8  9  1  0      
  9 10  1  0      
  8 11  1  0      
 11 12  2  0      
  3 12  1  0      
 12 13  1  0      
 13 14  2  0      
M  END
>  <Bioactivity>
Asaraldehyde is a natural COX-2 inhibitor, exhibiting 17-fold selectivity over COX-1.

>  <CAS>
4460-86-0

>  <Col>
7

>  <Formula>
C10H12O4

>  <ID>
T2826

>  <Index>
256

>  <MOLENAME>
Asarylaldehyde

>  <MolWt>
196.2

>  <Pathways>
Neuroscience

>  <Plate>
PLATE 004

>  <QR code>
1151476849

>  <Receptor>
COX2

>  <Reference>
1. Ni G, Yu DQ. Zhongguo Zhong Yao Za Zhi. 2013 Feb;38(4):569-73.

>  <Row>
B

>  <SMILES>
COC1=CC(OC)=C(OC)C=C1C=O

>  <Target>
COX inhibitor

>  <Weight>
10.1mg

$$$$
Lab-1.sdf
  ChemDraw05232018482D

 14 15  0  0  0  0  0  0  0  0999 V2000
   -2.5006    0.0000    0.0000 C   0  0  0  0  0  0  0  0  0  0  0  0
   -1.7861    0.0000    0.0000 O   0  0  0  0  0  0  0  0  0  0  0  0
   -1.0717    0.0000    0.0000 C   0  0  0  0  0  0  0  0  0  0  0  0
   -0.3572    0.0000    0.0000 C   0  0  0  0  0  0  0  0  0  0  0  0
    0.3572    0.0000    0.0000 C   0  0  0  0  0  0  0  0  0  0  0  0
    0.3572    0.0000    0.0000 C   0  0  0  0  0  0  0  0  0  0  0  0
   -0.3572    0.0000    0.0000 C   0  0  0  0  0  0  0  0  0  0  0  0
   -1.0717    0.0000    0.0000 C   0  0  0  0  0  0  0  0  0  0  0  0
    1.0716    0.0000    0.0000 C   0  0  0  0  0  0  0  0  0  0  0  0
    1.0716    0.0000    0.0000 C   0  0  0  0  0  0  0  0  0  0  0  0
    1.7861    0.0000    0.0000 C   0  0  0  0  0  0  0  0  0  0  0  0
    1.7861    0.0000    0.0000 C   0  0  0  0  0  0  0  0  0  0  0  0
    2.5006    0.0000    0.0000 O   0  0  0  0  0  0  0  0  0  0  0  0
    1.0716    0.0000    0.0000 O   0  0  0  0  0  0  0  0  0  0  0  0
  1  2  1  0      
  2  3  1  0      
  3  4  2  0      
  4  5  1  0      
  5  6  2  0      
  6  7  1  0      
  7  8  2  0      
  3  8  1  0      
  6  9  1  0      
  9 10  1  0      
  9 11  2  0      
 11 12  1  0      
 12 13  2  0      
 12 14  1  0      
  5 14  1  0      
M  END
>  <Bioactivity>
7-Methoxy-4-methylcoumarin is Inhibitors of HSD17B4, hydroxysteroid (17-beta) dehydrogenase 4, with activity value of 31.6228 ?M

>  <CAS>
2555-28-4

>  <Col>
8

>  <Formula>
C11H10O3

>  <ID>
T2785

>  <Index>
257

>  <MOLENAME>
7-Methoxy-4-methylcoumarin

>  <MolWt>
190.2

>  <Pathways>
Others

>  <Plate>
PLATE 004

>  <QR code>
1151476850

>  <Receptor>
Others

>  <Reference>
1. Riveiro ME, et al. Structural insights into hydroxycoumarin-induced apoptosis in U-937 cells. Bioorg Med Chem. 2008 Mar 1;16(5):2665-75.

>  <Row>
B

>  <SMILES>
COC1=CC2=C(C=C1)C(C)=CC(=O)O2

>  <Target>
Others

>  <Weight>
10.2mg

$$$$
Lab-1.sdf
  ChemDraw05232018482D

 12 12  0  0  0  0  0  0  0  0999 V2000
    0.3572    0.0000    0.0000 C   0  0  0  0  0  0  0  0  0  0  0  0
    0.3572    0.0000    0.0000 C   0  0  0  0  0  0  0  0  0  0  0  0
    1.0716    0.0000    0.0000 C   0  0  0  0  0  0  0  0  0  0  0  0
    1.0716    0.0000    0.0000 C   0  0  0  0  0  0  0  0  0  0  0  0
    1.7861    0.0000    0.0000 O   0  0  0  0  0  0  0  0  0  0  0  0
    0.3572    0.0000    0.0000 C   0  0  0  0  0  0  0  0  0  0  0  0
   -0.3573    0.0000    0.0000 C   0  0  0  0  0  0  0  0  0  0  0  0
   -1.0717    0.0000    0.0000 O   0  0  0  0  0  0  0  0  0  0  0  0
   -0.3573    0.0000    0.0000 C   0  0  0  0  0  0  0  0  0  0  0  0
   -1.0717    0.0000    0.0000 C   0  0  0  0  0  0  0  0  0  0  0  0
   -1.7861    0.0000    0.0000 O   0  0  0  0  0  0  0  0  0  0  0  0
   -1.0717    0.0000    0.0000 O   0  0  0  0  0  0  0  0  0  0  0  0
  1  2  1  0      
  2  3  2  0      
  3  4  1  0      
  4  5  1  0      
  4  6  2  0      
  6  7  1  0      
  7  8  1  0      
  7  9  2  0      
  2  9  1  0      
  9 10  1  0      
 10 11  1  0      
 10 12  2  0      
M  END
>  <Bioactivity>
Orsellinic acid, more specifically o-orsellinic acid, is a phenolic acid. It is of importance in the biochemistry of lichens, from which it can be extracted.

>  <CAS>
480-64-8

>  <Col>
9

>  <Formula>
C8H8O4

>  <ID>
T2839

>  <Index>
258

>  <MOLENAME>
Orsellinic acid

>  <MolWt>
168.15

>  <Pathways>
Others

>  <Plate>
PLATE 004

>  <QR code>
1151476851

>  <Receptor>
Others

>  <Reference>
1. Kang Ying, et al. Organic Letters, 2003, 5 (23): 4481?4484.

>  <Row>
B

>  <SMILES>
CC1=CC(O)=CC(O)=C1C(O)=O

>  <Target>
Others

>  <Weight>
10.3mg

$$$$
Lab-1.sdf
  ChemDraw05232018482D

 29 32  0  0  0  0  0  0  0  0999 V2000
   -1.4673    0.0000    0.0000 C   0  0  0  0  0  0  0  0  0  0  0  0
   -1.7782    0.0000    0.0000 C   0  0  0  0  0  0  0  0  0  0  0  0
   -2.5955    0.0000    0.0000 C   0  0  0  0  0  0  0  0  0  0  0  0
   -3.1019    0.0000    0.0000 C   0  0  0  0  0  0  0  0  0  0  0  0
   -3.9191    0.0000    0.0000 C   0  0  0  0  0  0  0  0  0  0  0  0
   -4.4255    0.0000    0.0000 O   0  0  0  0  0  0  0  0  0  0  0  0
   -4.2300    0.0000    0.0000 O   0  0  0  0  0  0  0  0  0  0  0  0
   -1.2718    0.0000    0.0000 C   0  0  0  0  0  0  0  0  0  0  0  0
   -1.5011    0.0000    0.0000 C   0  0  0  0  0  0  0  0  0  0  0  0
   -0.8183    0.0000    0.0000 C   0  0  0  0  0  0  0  0  0  0  0  0
   -0.1670    0.0000    0.0000 C   0  0  0  0  0  0  0  0  0  0  0  0
    0.6452    0.0000    0.0000 C   0  0  0  0  0  0  0  0  0  0  0  0
    0.9254    0.0000    0.0000 C   0  0  0  0  0  0  0  0  0  0  0  0
    0.3936    0.0000    0.0000 O   0  0  0  0  0  0  0  0  0  0  0  0
    1.7376    0.0000    0.0000 C   0  0  0  0  0  0  0  0  0  0  0  0
    2.2695    0.0000    0.0000 C   0  0  0  0  0  0  0  0  0  0  0  0
    3.0816    0.0000    0.0000 C   0  0  0  0  0  0  0  0  0  0  0  0
    3.6134    0.0000    0.0000 C   0  0  0  0  0  0  0  0  0  0  0  0
    4.4255    0.0000    0.0000 O   0  0  0  0  0  0  0  0  0  0  0  0
    3.3331    0.0000    0.0000 C   0  0  0  0  0  0  0  0  0  0  0  0
    2.5210    0.0000    0.0000 C   0  0  0  0  0  0  0  0  0  0  0  0
    1.9891    0.0000    0.0000 C   0  0  0  0  0  0  0  0  0  0  0  0
    1.7088    0.0000    0.0000 C   0  0  0  0  0  0  0  0  0  0  0  0
    1.1770    0.0000    0.0000 C   0  0  0  0  0  0  0  0  0  0  0  0
    0.8967    0.0000    0.0000 C   0  0  0  0  0  0  0  0  0  0  0  0
    0.0846    0.0000    0.0000 C   0  0  0  0  0  0  0  0  0  0  0  0
   -0.1957    0.0000    0.0000 O   0  0  0  0  0  0  0  0  0  0  0  0
   -0.4473    0.0000    0.0000 C   0  0  0  0  0  0  0  0  0  0  0  0
   -0.8071    0.0000    0.0000 C   0  0  0  0  0  0  0  0  0  0  0  0
  1  2  1  0      
  2  3  1  0      
  3  4  1  0      
  4  5  1  0      
  5  6  1  0      
  5  7  2  0      
  2  8  1  0      
  8  9  1  0      
  9 10  1  0      
 10 11  1  0      
 11 12  1  0      
 12 13  1  0      
 13 14  1  0      
 13 15  1  0      
 15 16  1  0      
 16 17  1  0      
 17 18  1  0      
 18 19  1  0      
 18 20  1  0      
 20 21  1  0      
 21 22  1  0      
 16 22  1  0      
 22 23  1  0      
 22 24  1  0      
 12 24  1  0      
 24 25  1  0      
 25 26  1  0      
 26 27  1  0      
 26 28  1  0      
  8 28  1  0      
 11 28  1  0      
 28 29  1  0      
M  END
>  <Bioactivity>
ApplicationNon-denaturing ionic detergent used for extraction of membrane proteins. ActionsBile AcidPackaging1 kg in poly bottle25,100,500 g in poly bottle

>  <CAS>
81-25-4

>  <Col>
10

>  <Formula>
C24H40O5

>  <ID>
T2963

>  <Index>
259

>  <MOLENAME>
Cholic Acid

>  <MolWt>
408.58

>  <Pathways>
Others

>  <Plate>
PLATE 004

>  <QR code>
1151476852

>  <Receptor>
Others

>  <Reference>
1. Wu Y, et al. J Biomed Nanotechnol. 2015 Jul;11(7):1247-60.

>  <Row>
B

>  <SMILES>
CC(CCC(O)=O)C1CCC2C3C(O)CC4CC(O)CCC4(C)C3CC(O)C12C

>  <Target>
Others

>  <Weight>
10mg

$$$$
Lab-1.sdf
  ChemDraw05232018482D

 17 18  0  0  0  0  0  0  0  0999 V2000
    1.0717    0.0000    0.0000 O   0  0  0  0  0  0  0  0  0  0  0  0
    1.0717    0.0000    0.0000 C   0  0  0  0  0  0  0  0  0  0  0  0
    1.7861    0.0000    0.0000 C   0  0  0  0  0  0  0  0  0  0  0  0
    1.7861    0.0000    0.0000 C   0  0  0  0  0  0  0  0  0  0  0  0
    1.0717    0.0000    0.0000 C   0  0  0  0  0  0  0  0  0  0  0  0
    1.0717    0.0000    0.0000 C   0  0  0  0  0  0  0  0  0  0  0  0
    0.3572    0.0000    0.0000 C   0  0  0  0  0  0  0  0  0  0  0  0
    0.3572    0.0000    0.0000 C   0  0  0  0  0  0  0  0  0  0  0  0
    1.0717    0.0000    0.0000 O   0  0  0  0  0  0  0  0  0  0  0  0
   -0.3573    0.0000    0.0000 C   0  0  0  0  0  0  0  0  0  0  0  0
   -0.3573    0.0000    0.0000 C   0  0  0  0  0  0  0  0  0  0  0  0
   -1.0717    0.0000    0.0000 C   0  0  0  0  0  0  0  0  0  0  0  0
   -1.7861    0.0000    0.0000 C   0  0  0  0  0  0  0  0  0  0  0  0
   -1.7861    0.0000    0.0000 C   0  0  0  0  0  0  0  0  0  0  0  0
   -1.0717    0.0000    0.0000 C   0  0  0  0  0  0  0  0  0  0  0  0
    0.3572    0.0000    0.0000 C   0  0  0  0  0  0  0  0  0  0  0  0
    0.3572    0.0000    0.0000 C   0  0  0  0  0  0  0  0  0  0  0  0
  1  2  1  0      
  2  3  2  0      
  3  4  1  0      
  4  5  2  0      
  6  5  1  4      
  6  7  2  0      
  7  8  1  0      
  8  9  2  0      
  8 10  1  0      
 10 11  2  0      
 11 12  1  0      
 12 13  2  0      
 13 14  1  0      
 14 15  2  0      
 10 15  1  0      
  5 16  1  0      
 16 17  2  0      
  2 17  1  0      
M  END
>  <Bioactivity>
4-Hydroxychalcone attenuates hyperaldosteronism, inflammation, and renal injury in cryptochrome-null mice.

>  <CAS>
20426-12-4

>  <Col>
11

>  <Formula>
C15H12O2

>  <ID>
T3005

>  <Index>
260

>  <MOLENAME>
4-Hydroxychalcone

>  <MolWt>
224.26

>  <Pathways>
Others

>  <Plate>
PLATE 004

>  <QR code>
1151476853

>  <Receptor>
Others

>  <Reference>
1. Qu Q, et al. Biomed Res Int. 2014;2014:603415.

>  <Row>
B

>  <SMILES>
OC1=CC=C(C=CC(=O)C2=CC=CC=C2)C=C1

>  <Target>
Others

>  <Weight>
10.2mg

$$$$
Lab-1.sdf
  ChemDraw05232018482D

 13 13  0  0  0  0  0  0  0  0999 V2000
   -1.4289    0.0000    0.0000 O   0  0  0  0  0  0  0  0  0  0  0  0
   -0.7145    0.0000    0.0000 C   0  0  0  0  0  0  0  0  0  0  0  0
   -0.0000    0.0000    0.0000 O   0  0  0  0  0  0  0  0  0  0  0  0
   -0.7145    0.0000    0.0000 C   0  0  0  0  0  0  0  0  0  0  0  0
   -0.0000    0.0000    0.0000 C   0  0  0  0  0  0  0  0  0  0  0  0
   -0.0000    0.0000    0.0000 C   0  0  0  0  0  0  0  0  0  0  0  0
    0.7145    0.0000    0.0000 C   0  0  0  0  0  0  0  0  0  0  0  0
    0.7145    0.0000    0.0000 C   0  0  0  0  0  0  0  0  0  0  0  0
    1.4289    0.0000    0.0000 C   0  0  0  0  0  0  0  0  0  0  0  0
    1.4289    0.0000    0.0000 C   0  0  0  0  0  0  0  0  0  0  0  0
    0.7145    0.0000    0.0000 C   0  0  0  0  0  0  0  0  0  0  0  0
   -0.0000    0.0000    0.0000 C   0  0  0  0  0  0  0  0  0  0  0  0
   -0.0000    0.0000    0.0000 C   0  0  0  0  0  0  0  0  0  0  0  0
  1  2  1  0      
  2  3  2  0      
  4  2  1  4      
  4  5  2  0      
  6  5  1  4      
  6  7  2  0      
  7  8  1  0      
  8  9  2  0      
  9 10  1  0      
 10 11  2  0      
 11 12  1  0      
 12 13  2  0      
  8 13  1  0      
M  END
>  <Bioactivity>
JUAREZIC ACID is also known as 5-Phenylpenta-2,4-dienoic acid.

>  <CAS>
1552-94-9

>  <Col>
2

>  <Formula>
C11H10O2

>  <ID>
T3006

>  <Index>
261

>  <MOLENAME>
5-Phenyl-2,4-pentadienoic acid

>  <MolWt>
174.2

>  <Pathways>
Others

>  <Plate>
PLATE 004

>  <QR code>
1151476841

>  <Receptor>
Others

>  <Reference>
1. Werbel LM, et al. J Med Chem. 1968 Sep;11(5):1073-4.

>  <Row>
C

>  <SMILES>
OC(=O)C=CC=CC1=CC=CC=C1

>  <Target>
Others

>  <Weight>
10.1mg

$$$$
Lab-1.sdf
  ChemDraw05232018482D

 14 13  0  0  0  0  0  0  0  0999 V2000
   -4.6439    0.0000    0.0000 N   0  0  0  0  0  0  0  0  0  0  0  0
   -3.9295    0.0000    0.0000 C   0  0  0  0  0  0  0  0  0  0  0  0
   -3.2151    0.0000    0.0000 C   0  0  0  0  0  0  0  0  0  0  0  0
   -2.5006    0.0000    0.0000 C   0  0  0  0  0  0  0  0  0  0  0  0
   -1.7862    0.0000    0.0000 N   0  0  0  0  0  0  0  0  0  0  0  0
   -1.0717    0.0000    0.0000 C   0  0  0  0  0  0  0  0  0  0  0  0
   -0.3572    0.0000    0.0000 C   0  0  0  0  0  0  0  0  0  0  0  0
    0.3572    0.0000    0.0000 C   0  0  0  0  0  0  0  0  0  0  0  0
    1.0716    0.0000    0.0000 C   0  0  0  0  0  0  0  0  0  0  0  0
    1.7861    0.0000    0.0000 N   0  0  0  0  0  0  0  0  0  0  0  0
    2.5006    0.0000    0.0000 C   0  0  0  0  0  0  0  0  0  0  0  0
    3.2150    0.0000    0.0000 C   0  0  0  0  0  0  0  0  0  0  0  0
    3.9294    0.0000    0.0000 C   0  0  0  0  0  0  0  0  0  0  0  0
    4.6439    0.0000    0.0000 N   0  0  0  0  0  0  0  0  0  0  0  0
  1  2  1  0      
  2  3  1  0      
  3  4  1  0      
  4  5  1  0      
  5  6  1  0      
  6  7  1  0      
  7  8  1  0      
  8  9  1  0      
  9 10  1  0      
 10 11  1  0      
 11 12  1  0      
 12 13  1  0      
 13 14  1  0      
M  END
>  <Bioactivity>
A biogenic polyamine formed from spermidine. It is found in a wide variety of organisms and tissues and is an essential growth factor in some bacteria. It is found as a polycation at all pH values. Sp
ermine is associated with nucleic acids, particularly in viruses, and is thought to stabilize the helical structure.

>  <CAS>
71-44-3

>  <Col>
3

>  <Formula>
C10H26N4

>  <ID>
T3007

>  <Index>
262

>  <MOLENAME>
Spermine

>  <MolWt>
202.35

>  <Pathways>
Others

>  <Plate>
PLATE 004

>  <QR code>
1151476840

>  <Receptor>
Others

>  <Reference>
1. Elustondo PA, et al. Biochim Biophys Acta. 2015 Feb;1847(2):231-40. 

>  <Row>
C

>  <SMILES>
NCCCNCCCCNCCCN

>  <Target>
Others

>  <Weight>
10.3mg

$$$$
Lab-1.sdf
  ChemDraw05232018482D

  8  7  0  0  0  0  0  0  0  0999 V2000
   -1.7861    0.0000    0.0000 O   0  0  0  0  0  0  0  0  0  0  0  0
   -1.0717    0.0000    0.0000 C   0  0  0  0  0  0  0  0  0  0  0  0
   -1.0717    0.0000    0.0000 O   0  0  0  0  0  0  0  0  0  0  0  0
   -0.3573    0.0000    0.0000 C   0  0  0  0  0  0  0  0  0  0  0  0
    0.3572    0.0000    0.0000 C   0  0  0  0  0  0  0  0  0  0  0  0
    1.0716    0.0000    0.0000 N   0  3  0  0  0  0  0  0  0  0  0  0
    1.7861    0.0000    0.0000 O   0  5  0  0  0  0  0  0  0  0  0  0
    1.0716    0.0000    0.0000 O   0  0  0  0  0  0  0  0  0  0  0  0
  1  2  1  0      
  2  3  2  0      
  2  4  1  0      
  4  5  1  0      
  5  6  1  0      
  6  7  1  0      
  6  8  2  0      
M  CHG  2   6   1   7  -1
M  END
>  <Bioactivity>
A new antibiotic bovinocidin, identified as beta-nitropropionic acid.

>  <CAS>
504-88-1

>  <Col>
4

>  <Formula>
C3H5NO4

>  <ID>
T3009

>  <Index>
263

>  <MOLENAME>
Bovinocidin

>  <MolWt>
119.08

>  <Pathways>
Others

>  <Plate>
PLATE 004

>  <QR code>
1151476839

>  <Receptor>
Others

>  <Reference>
1. Gupta S, Sharma B. Eur J Pharmacol. 2014 Jun 5;732:111-22. 

>  <Row>
C

>  <SMILES>
OC(=O)CC[N+]([O-])=O

>  <Target>
Others

>  <Weight>
10.2mg

$$$$
Lab-1.sdf
  ChemDraw05232018482D

 15 16  0  0  0  0  0  0  0  0999 V2000
   -1.4289    0.0000    0.0000 O   0  0  0  0  0  0  0  0  0  0  0  0
   -1.4289    0.0000    0.0000 C   0  0  0  0  0  0  0  0  0  0  0  0
   -2.1434    0.0000    0.0000 O   0  0  0  0  0  0  0  0  0  0  0  0
   -0.7145    0.0000    0.0000 C   0  0  0  0  0  0  0  0  0  0  0  0
   -0.7145    0.0000    0.0000 C   0  0  0  0  0  0  0  0  0  0  0  0
   -0.0000    0.0000    0.0000 C   0  0  0  0  0  0  0  0  0  0  0  0
   -0.0000    0.0000    0.0000 O   0  0  0  0  0  0  0  0  0  0  0  0
    0.7145    0.0000    0.0000 C   0  0  0  0  0  0  0  0  0  0  0  0
    0.7145    0.0000    0.0000 C   0  0  0  0  0  0  0  0  0  0  0  0
   -0.0000    0.0000    0.0000 N   0  0  0  0  0  0  0  0  0  0  0  0
    1.4289    0.0000    0.0000 C   0  0  0  0  0  0  0  0  0  0  0  0
    1.4289    0.0000    0.0000 O   0  0  0  0  0  0  0  0  0  0  0  0
    2.1434    0.0000    0.0000 C   0  0  0  0  0  0  0  0  0  0  0  0
    2.1434    0.0000    0.0000 C   0  0  0  0  0  0  0  0  0  0  0  0
    1.4289    0.0000    0.0000 C   0  0  0  0  0  0  0  0  0  0  0  0
  1  2  1  0      
  2  3  2  0      
  2  4  1  0      
  4  5  2  0      
  5  6  1  0      
  6  7  2  0      
  6  8  1  0      
  8  9  2  0      
  9 10  1  0      
  4 10  1  0      
  9 11  1  0      
 11 12  1  0      
 11 13  2  0      
 13 14  1  0      
 14 15  2  0      
  8 15  1  0      
M  END
>  <Bioactivity>
Xanthurenic acid, or xanthurenate, is a chemical shown to induce gametogenesis of Plasmodium falciparum, the parasite that causes malaria. It is found in the gut of the Anopheles mosquito. Xanthurenic
 acid is a metabolic intermediate that accumulates and is excreted by pyridoxine (vitamin B6) deficient animals after the ingestion of tryptophan.

>  <CAS>
59-00-7

>  <Col>
5

>  <Formula>
C10H7NO4

>  <ID>
T3010

>  <Index>
264

>  <MOLENAME>
Xanthurenic Acid

>  <MolWt>
205.17

>  <Pathways>
Others

>  <Plate>
PLATE 004

>  <QR code>
1151476838

>  <Receptor>
Others

>  <Reference>
1. Haruki H, et al. J Biol Chem. 2015 Nov 12. pii: jbc.C115.680488.

>  <Row>
C

>  <SMILES>
OC(=O)C1=CC(=O)C2=C(N1)C(O)=CC=C2

>  <Target>
Others

>  <Weight>
10.1mg

$$$$
Lab-1.sdf
  ChemDraw05232018482D

 15 15  0  0  0  0  0  0  0  0999 V2000
    1.0717    0.0000    0.0000 N   0  0  0  0  0  0  0  0  0  0  0  0
    1.0717    0.0000    0.0000 C   0  0  0  0  0  0  0  0  0  0  0  0
    0.3572    0.0000    0.0000 C   0  0  0  0  0  0  0  0  0  0  0  0
   -0.3573    0.0000    0.0000 C   0  0  0  0  0  0  0  0  0  0  0  0
   -0.3573    0.0000    0.0000 O   0  0  0  0  0  0  0  0  0  0  0  0
   -1.0717    0.0000    0.0000 C   0  0  0  0  0  0  0  0  0  0  0  0
   -1.0717    0.0000    0.0000 C   0  0  0  0  0  0  0  0  0  0  0  0
   -1.7861    0.0000    0.0000 C   0  0  0  0  0  0  0  0  0  0  0  0
   -2.5006    0.0000    0.0000 C   0  0  0  0  0  0  0  0  0  0  0  0
   -2.5006    0.0000    0.0000 C   0  0  0  0  0  0  0  0  0  0  0  0
   -1.7861    0.0000    0.0000 C   0  0  0  0  0  0  0  0  0  0  0  0
   -1.7861    0.0000    0.0000 N   0  0  0  0  0  0  0  0  0  0  0  0
    1.7861    0.0000    0.0000 C   0  0  0  0  0  0  0  0  0  0  0  0
    2.5006    0.0000    0.0000 O   0  0  0  0  0  0  0  0  0  0  0  0
    1.7861    0.0000    0.0000 O   0  0  0  0  0  0  0  0  0  0  0  0
  1  2  1  0      
  2  3  1  0      
  3  4  1  0      
  4  5  2  0      
  4  6  1  0      
  6  7  2  0      
  7  8  1  0      
  8  9  2  0      
  9 10  1  0      
 10 11  2  0      
  6 11  1  0      
 11 12  1  0      
  2 13  1  0      
 13 14  1  0      
 13 15  2  0      
M  END
>  <Bioactivity>
Kynurenine is synthesized by the enzyme tryptophan dioxygenase, which is made primarily but not exclusively in the liver, and indoleamine 2,3-dioxygenase, which is made in many tissues in response to 
immune activation.

>  <CAS>
343-65-7

>  <Col>
6

>  <Formula>
C10H12N2O3

>  <ID>
T3011

>  <Index>
265

>  <MOLENAME>
Kynurenine

>  <MolWt>
208.22

>  <Pathways>
Others

>  <Plate>
PLATE 004

>  <QR code>
1151476837

>  <Receptor>
Others

>  <Reference>
1. Liu JJ, et al. Biochim Biophys Acta. 2015 May;1852(5):980-91.

>  <Row>
C

>  <SMILES>
NC(CC(=O)C1=CC=CC=C1N)C(O)=O

>  <Target>
Others

>  <Weight>
10mg

$$$$
Lab-1.sdf
  ChemDraw05232018482D

 30 33  0  0  0  0  0  0  0  0999 V2000
   -4.2868    0.0000    0.0000 O   0  0  0  0  0  0  0  0  0  0  0  0
   -3.5723    0.0000    0.0000 C   0  0  0  0  0  0  0  0  0  0  0  0
   -2.8579    0.0000    0.0000 C   0  0  0  0  0  0  0  0  0  0  0  0
   -2.1434    0.0000    0.0000 O   0  0  0  0  0  0  0  0  0  0  0  0
   -1.4289    0.0000    0.0000 C   0  0  0  0  0  0  0  0  0  0  0  0
   -1.4289    0.0000    0.0000 C   0  0  0  0  0  0  0  0  0  0  0  0
   -0.7145    0.0000    0.0000 O   0  0  0  0  0  0  0  0  0  0  0  0
   -2.1434    0.0000    0.0000 C   0  0  0  0  0  0  0  0  0  0  0  0
   -2.1434    0.0000    0.0000 O   0  0  0  0  0  0  0  0  0  0  0  0
   -2.8579    0.0000    0.0000 C   0  0  0  0  0  0  0  0  0  0  0  0
   -3.5723    0.0000    0.0000 O   0  0  0  0  0  0  0  0  0  0  0  0
   -0.7145    0.0000    0.0000 C   0  0  0  0  0  0  0  0  0  0  0  0
   -0.7145    0.0000    0.0000 C   0  0  0  0  0  0  0  0  0  0  0  0
   -1.4289    0.0000    0.0000 O   0  0  0  0  0  0  0  0  0  0  0  0
   -0.0000    0.0000    0.0000 C   0  0  0  0  0  0  0  0  0  0  0  0
    0.7145    0.0000    0.0000 C   0  0  0  0  0  0  0  0  0  0  0  0
    1.4290    0.0000    0.0000 O   0  0  0  0  0  0  0  0  0  0  0  0
    2.1434    0.0000    0.0000 C   0  0  0  0  0  0  0  0  0  0  0  0
    2.8579    0.0000    0.0000 C   0  0  0  0  0  0  0  0  0  0  0  0
    3.5724    0.0000    0.0000 C   0  0  0  0  0  0  0  0  0  0  0  0
    4.2868    0.0000    0.0000 O   0  0  0  0  0  0  0  0  0  0  0  0
    3.5724    0.0000    0.0000 C   0  0  0  0  0  0  0  0  0  0  0  0
    4.2868    0.0000    0.0000 O   0  0  0  0  0  0  0  0  0  0  0  0
    2.8579    0.0000    0.0000 C   0  0  0  0  0  0  0  0  0  0  0  0
    2.1434    0.0000    0.0000 C   0  0  0  0  0  0  0  0  0  0  0  0
    1.4290    0.0000    0.0000 C   0  0  0  0  0  0  0  0  0  0  0  0
    1.4290    0.0000    0.0000 O   0  0  0  0  0  0  0  0  0  0  0  0
    0.7145    0.0000    0.0000 C   0  0  0  0  0  0  0  0  0  0  0  0
   -0.0000    0.0000    0.0000 C   0  0  0  0  0  0  0  0  0  0  0  0
   -0.0000    0.0000    0.0000 O   0  0  0  0  0  0  0  0  0  0  0  0
  1  2  1  0      
  2  3  1  0      
  3  4  1  0      
  4  5  1  0      
  5  6  1  0      
  6  7  1  0      
  6  8  1  0      
  8  9  1  0      
  8 10  1  0      
  3 10  1  0      
 10 11  1  0      
  5 12  1  0      
 12 13  2  0      
 13 14  1  0      
 13 15  1  0      
 15 16  2  0      
 16 17  1  0      
 17 18  1  0      
 18 19  2  0      
 19 20  1  0      
 20 21  1  0      
 20 22  2  0      
 22 23  1  0      
 22 24  1  0      
 24 25  2  0      
 18 25  1  0      
 25 26  1  0      
 26 27  2  0      
 26 28  1  0      
 16 28  1  0      
 28 29  2  0      
 12 29  1  0      
 29 30  1  0      
M  END
>  <Bioactivity>
Mangiferin is used for antidiabetes. Extracted from Mangifera indica L.;Suitability:Hot dilute methanol,hot dilute alcohol;Store the product in sealed,cool and dry condition

>  <CAS>
4773-96-0

>  <Col>
7

>  <Formula>
C19H18O11

>  <ID>
T3012

>  <Index>
266

>  <MOLENAME>
Mangiferin

>  <MolWt>
422.35

>  <Pathways>
Others

>  <Plate>
PLATE 004

>  <QR code>
1151476836

>  <Receptor>
Others

>  <Reference>
1. Miura T, et al. Phytomedicine. 2001 Mar;8 (2):85-7.

>  <Row>
C

>  <SMILES>
OCC1OC(C(O)C(O)C1O)C1=C(O)C=C2OC3=CC(O)=C(O)C=C3C(=O)C2=C1O

>  <Target>
Others

>  <Weight>
10.2mg

$$$$
Lab-1.sdf
  ChemDraw05232018482D

 60 67  0  0  0  0  0  0  0  0999 V2000
   -3.0446    0.0000    0.0000 O   0  0  0  0  0  0  0  0  0  0  0  0
   -3.0446    0.0000    0.0000 C   0  0  0  0  0  0  0  0  0  0  0  0
   -3.7590    0.0000    0.0000 C   0  0  0  0  0  0  0  0  0  0  0  0
   -3.7590    0.0000    0.0000 O   0  0  0  0  0  0  0  0  0  0  0  0
   -4.4735    0.0000    0.0000 C   0  0  0  0  0  0  0  0  0  0  0  0
   -5.1879    0.0000    0.0000 O   0  0  0  0  0  0  0  0  0  0  0  0
   -4.4735    0.0000    0.0000 O   0  0  0  0  0  0  0  0  0  0  0  0
   -2.3301    0.0000    0.0000 C   0  0  0  0  0  0  0  0  0  0  0  0
   -1.6157    0.0000    0.0000 O   0  0  0  0  0  0  0  0  0  0  0  0
   -2.3301    0.0000    0.0000 O   0  0  0  0  0  0  0  0  0  0  0  0
    1.5581    0.0000    0.0000 C   0  0  0  0  0  0  0  0  0  0  0  0
    0.8400    0.0000    0.0000 C   0  0  0  0  0  0  0  0  0  0  0  0
    0.8325    0.0000    0.0000 C   0  0  0  0  0  0  0  0  0  0  0  0
    0.2700    0.0000    0.0000 C   0  0  0  0  0  0  0  0  0  0  0  0
    0.8671    0.0000    0.0000 C   0  0  0  0  0  0  0  0  0  0  0  0
    0.7758    0.0000    0.0000 C   0  0  0  0  0  0  0  0  0  0  0  0
    1.4980    0.0000    0.0000 N   0  0  0  0  0  0  0  0  0  0  0  0
    2.1940    0.0000    0.0000 C   0  0  0  0  0  0  0  0  0  0  0  0
    3.0325    0.0000    0.0000 C   0  0  0  0  0  0  0  0  0  0  0  0
    3.3949    0.0000    0.0000 C   0  0  0  0  0  0  0  0  0  0  0  0
    3.0905    0.0000    0.0000 C   0  0  0  0  0  0  0  0  0  0  0  0
    3.7257    0.0000    0.0000 N   0  0  0  0  0  0  0  0  0  0  0  0
    4.4226    0.0000    0.0000 C   0  0  0  0  0  0  0  0  0  0  0  0
    5.2169    0.0000    0.0000 C   0  0  0  0  0  0  0  0  0  0  0  0
    5.8069    0.0000    0.0000 C   0  0  0  0  0  0  0  0  0  0  0  0
    5.6025    0.0000    0.0000 C   0  0  0  0  0  0  0  0  0  0  0  0
    4.8082    0.0000    0.0000 C   0  0  0  0  0  0  0  0  0  0  0  0
    4.2182    0.0000    0.0000 C   0  0  0  0  0  0  0  0  0  0  0  0
    2.2351    0.0000    0.0000 C   0  0  0  0  0  0  0  0  0  0  0  0
    1.7819    0.0000    0.0000 C   0  0  0  0  0  0  0  0  0  0  0  0
    1.4012    0.0000    0.0000 C   0  0  0  0  0  0  0  0  0  0  0  0
    2.1814    0.0000    0.0000 C   0  0  0  0  0  0  0  0  0  0  0  0
    1.4416    0.0000    0.0000 O   0  0  0  0  0  0  0  0  0  0  0  0
    2.8674    0.0000    0.0000 O   0  0  0  0  0  0  0  0  0  0  0  0
    2.8137    0.0000    0.0000 C   0  0  0  0  0  0  0  0  0  0  0  0
   -4.5188    0.0000    0.0000 C   0  0  0  0  0  0  0  0  0  0  0  0
   -5.2369    0.0000    0.0000 C   0  0  0  0  0  0  0  0  0  0  0  0
   -5.2444    0.0000    0.0000 C   0  0  0  0  0  0  0  0  0  0  0  0
   -5.8069    0.0000    0.0000 C   0  0  0  0  0  0  0  0  0  0  0  0
   -5.2097    0.0000    0.0000 C   0  0  0  0  0  0  0  0  0  0  0  0
   -5.3011    0.0000    0.0000 C   0  0  0  0  0  0  0  0  0  0  0  0
   -4.5790    0.0000    0.0000 N   0  0  0  0  0  0  0  0  0  0  0  0
   -3.8829    0.0000    0.0000 C   0  0  0  0  0  0  0  0  0  0  0  0
   -3.0443    0.0000    0.0000 C   0  0  0  0  0  0  0  0  0  0  0  0
   -2.6819    0.0000    0.0000 C   0  0  0  0  0  0  0  0  0  0  0  0
   -2.9864    0.0000    0.0000 C   0  0  0  0  0  0  0  0  0  0  0  0
   -2.3512    0.0000    0.0000 N   0  0  0  0  0  0  0  0  0  0  0  0
   -1.6543    0.0000    0.0000 C   0  0  0  0  0  0  0  0  0  0  0  0
   -0.8599    0.0000    0.0000 C   0  0  0  0  0  0  0  0  0  0  0  0
   -0.2699    0.0000    0.0000 C   0  0  0  0  0  0  0  0  0  0  0  0
   -0.4743    0.0000    0.0000 C   0  0  0  0  0  0  0  0  0  0  0  0
   -1.2687    0.0000    0.0000 C   0  0  0  0  0  0  0  0  0  0  0  0
   -1.8586    0.0000    0.0000 C   0  0  0  0  0  0  0  0  0  0  0  0
   -3.8417    0.0000    0.0000 C   0  0  0  0  0  0  0  0  0  0  0  0
   -4.2949    0.0000    0.0000 C   0  0  0  0  0  0  0  0  0  0  0  0
   -4.6758    0.0000    0.0000 C   0  0  0  0  0  0  0  0  0  0  0  0
   -3.8955    0.0000    0.0000 C   0  0  0  0  0  0  0  0  0  0  0  0
   -4.6353    0.0000    0.0000 O   0  0  0  0  0  0  0  0  0  0  0  0
   -3.2094    0.0000    0.0000 O   0  0  0  0  0  0  0  0  0  0  0  0
   -3.2632    0.0000    0.0000 C   0  0  0  0  0  0  0  0  0  0  0  0
  1  2  1  0      
  2  3  1  0      
  3  4  1  0      
  3  5  1  0      
  5  6  1  0      
  5  7  2  0      
  2  8  1  0      
  8  9  1  0      
  8 10  2  0      
 11 12  1  0      
 12 13  1  0      
 13 14  2  0      
 14 15  1  0      
 15 16  1  0      
 16 17  1  0      
 17 18  1  0      
 18 19  1  0      
 19 20  1  0      
 20 21  2  0      
 21 22  1  0      
 22 23  1  0      
 23 24  2  0      
 24 25  1  0      
 25 26  2  0      
 26 27  1  0      
 27 28  2  0      
 20 28  1  0      
 23 28  1  0      
 21 29  1  0      
 29 30  1  0      
 15 30  1  0      
 29 31  1  0      
 13 31  1  0      
 17 31  1  0      
 29 32  1  0      
 32 33  2  0      
 32 34  1  0      
 34 35  1  0      
 36 37  1  0      
 37 38  1  0      
 38 39  2  0      
 39 40  1  0      
 40 41  1  0      
 41 42  1  0      
 42 43  1  0      
 43 44  1  0      
 44 45  1  0      
 45 46  2  0      
 46 47  1  0      
 47 48  1  0      
 48 49  2  0      
 49 50  1  0      
 50 51  2  0      
 51 52  1  0      
 52 53  2  0      
 45 53  1  0      
 48 53  1  0      
 46 54  1  0      
 54 55  1  0      
 40 55  1  0      
 54 56  1  0      
 38 56  1  0      
 42 56  1  0      
 54 57  1  0      
 57 58  2  0      
 57 59  1  0      
 59 60  1  0      
M  END
>  <Bioactivity>
Extracted from whole herb of Catharanthus roseus (L.)G.Don;Store the product in sealed, cool and dry condition.

>  <CAS>
4168-17-6

>  <Col>
8

>  <Formula>
C25H30N2O8

>  <ID>
T3013

>  <Index>
267

>  <MOLENAME>
Catharanthine tartrate

>  <MolWt>
486.51

>  <Pathways>
Others

>  <Plate>
PLATE 004

>  <QR code>
1151476835

>  <Receptor>
Others

>  <Reference>
1. Lin C, et al. Biomed Chromatogr. 2015 Jan;29(1):97-102. 

>  <Row>
C

>  <SMILES>
OC(C(O)C(O)=O)C(O)=O.CCC1=CC2CN3CCC4=C(NC5=CC=CC=C45)C(C2)(C13)C(=O)OC.CCC1=CC2CN3CCC4=C(NC5=CC=CC=C45)C(C2)(C13)C(=O)OC

>  <Target>
Others

>  <Weight>
10.4mg

$$$$
Lab-1.sdf
  ChemDraw05232018482D

 19 19  0  0  0  0  0  0  0  0999 V2000
    0.3462    0.0000    0.0000 C   0  0  0  0  0  0  0  0  0  0  0  0
    0.6283    0.0000    0.0000 C   0  0  0  0  0  0  0  0  0  0  0  0
    0.0980    0.0000    0.0000 C   0  0  0  0  0  0  0  0  0  0  0  0
   -0.7143    0.0000    0.0000 C   0  0  0  0  0  0  0  0  0  0  0  0
   -1.2446    0.0000    0.0000 C   0  0  0  0  0  0  0  0  0  0  0  0
   -1.7749    0.0000    0.0000 O   0  0  0  0  0  0  0  0  0  0  0  0
   -0.5302    0.0000    0.0000 C   0  0  0  0  0  0  0  0  0  0  0  0
    0.1842    0.0000    0.0000 C   0  0  0  0  0  0  0  0  0  0  0  0
   -0.5302    0.0000    0.0000 C   0  0  0  0  0  0  0  0  0  0  0  0
   -1.2446    0.0000    0.0000 C   0  0  0  0  0  0  0  0  0  0  0  0
   -1.2446    0.0000    0.0000 O   0  0  0  0  0  0  0  0  0  0  0  0
   -1.9591    0.0000    0.0000 C   0  0  0  0  0  0  0  0  0  0  0  0
   -1.9591    0.0000    0.0000 C   0  0  0  0  0  0  0  0  0  0  0  0
   -2.7836    0.0000    0.0000 C   0  0  0  0  0  0  0  0  0  0  0  0
   -2.3963    0.0000    0.0000 C   0  0  0  0  0  0  0  0  0  0  0  0
    1.4408    0.0000    0.0000 C   0  0  0  0  0  0  0  0  0  0  0  0
    1.9711    0.0000    0.0000 C   0  0  0  0  0  0  0  0  0  0  0  0
    1.6889    0.0000    0.0000 O   0  0  0  0  0  0  0  0  0  0  0  0
    2.7836    0.0000    0.0000 O   0  0  0  0  0  0  0  0  0  0  0  0
  1  2  1  0      
  3  2  1  4      
  3  4  2  0      
  4  5  1  0      
  5  6  1  0      
  5  7  1  0      
  7  8  1  0      
  7  9  2  0      
  9 10  1  0      
 10 11  2  0      
 10 12  1  0      
 12 13  1  0      
  5 13  1  0      
 13 14  1  0      
 13 15  1  0      
  2 16  2  0      
 16 17  1  4      
 17 18  1  0      
 17 19  2  0      
M  END
>  <Bioactivity>
Abscission-accelerating plant growth substance isolated from young cotton fruit, leaves of sycamore, birch, and other plants, and from potatoes, lemons, avocados, and other fruits.

>  <CAS>
14375-45-2

>  <Col>
9

>  <Formula>
C15H20O4

>  <ID>
T3014

>  <Index>
268

>  <MOLENAME>
Abscisic acid

>  <MolWt>
264.32

>  <Pathways>
Others

>  <Plate>
PLATE 004

>  <QR code>
1151476834

>  <Receptor>
Others

>  <Reference>
1. Wen F, et al. J Integr Plant Biol. 2015 Feb;57(2):213-28.

>  <Row>
C

>  <SMILES>
CC(C=CC1(O)C(C)=CC(=O)CC1(C)C)=CC(O)=O

>  <Target>
Others

>  <Weight>
10.3mg

$$$$
Lab-1.sdf
  ChemDraw05232018482D

 35 36  0  0  0  0  0  0  0  0999 V2000
   -5.1051    0.0000    0.0000 O   0  0  0  0  0  0  0  0  0  0  0  0
    1.5900    0.0000    0.0000 O   0  0  0  0  0  0  0  0  0  0  0  0
    1.9255    0.0000    0.0000 C   0  0  0  0  0  0  0  0  0  0  0  0
    1.4406    0.0000    0.0000 C   0  0  0  0  0  0  0  0  0  0  0  0
    1.6955    0.0000    0.0000 O   0  0  0  0  0  0  0  0  0  0  0  0
    1.0281    0.0000    0.0000 C   0  0  0  0  0  0  0  0  0  0  0  0
    0.4761    0.0000    0.0000 C   0  0  0  0  0  0  0  0  0  0  0  0
   -0.3309    0.0000    0.0000 O   0  0  0  0  0  0  0  0  0  0  0  0
    1.5801    0.0000    0.0000 O   0  0  0  0  0  0  0  0  0  0  0  0
    2.3871    0.0000    0.0000 C   0  0  0  0  0  0  0  0  0  0  0  0
    2.9391    0.0000    0.0000 O   0  0  0  0  0  0  0  0  0  0  0  0
    3.7461    0.0000    0.0000 C   0  0  0  0  0  0  0  0  0  0  0  0
    4.2981    0.0000    0.0000 C   0  0  0  0  0  0  0  0  0  0  0  0
    5.1051    0.0000    0.0000 O   0  0  0  0  0  0  0  0  0  0  0  0
    4.0011    0.0000    0.0000 C   0  0  0  0  0  0  0  0  0  0  0  0
    4.8080    0.0000    0.0000 O   0  0  0  0  0  0  0  0  0  0  0  0
    3.4490    0.0000    0.0000 C   0  0  0  0  0  0  0  0  0  0  0  0
    3.7040    0.0000    0.0000 O   0  0  0  0  0  0  0  0  0  0  0  0
    2.6421    0.0000    0.0000 C   0  0  0  0  0  0  0  0  0  0  0  0
    2.0900    0.0000    0.0000 O   0  0  0  0  0  0  0  0  0  0  0  0
    0.3607    0.0000    0.0000 C   0  0  0  0  0  0  0  0  0  0  0  0
   -0.4240    0.0000    0.0000 O   0  0  0  0  0  0  0  0  0  0  0  0
   -1.0370    0.0000    0.0000 C   0  0  0  0  0  0  0  0  0  0  0  0
   -0.8655    0.0000    0.0000 O   0  0  0  0  0  0  0  0  0  0  0  0
   -1.4786    0.0000    0.0000 C   0  0  0  0  0  0  0  0  0  0  0  0
   -1.3071    0.0000    0.0000 C   0  0  0  0  0  0  0  0  0  0  0  0
   -0.5225    0.0000    0.0000 O   0  0  0  0  0  0  0  0  0  0  0  0
   -2.2632    0.0000    0.0000 C   0  0  0  0  0  0  0  0  0  0  0  0
   -2.8763    0.0000    0.0000 O   0  0  0  0  0  0  0  0  0  0  0  0
   -2.4348    0.0000    0.0000 C   0  0  0  0  0  0  0  0  0  0  0  0
   -3.2194    0.0000    0.0000 O   0  0  0  0  0  0  0  0  0  0  0  0
   -1.8217    0.0000    0.0000 C   0  0  0  0  0  0  0  0  0  0  0  0
   -1.9932    0.0000    0.0000 O   0  0  0  0  0  0  0  0  0  0  0  0
    0.6156    0.0000    0.0000 C   0  0  0  0  0  0  0  0  0  0  0  0
    0.1307    0.0000    0.0000 O   0  0  0  0  0  0  0  0  0  0  0  0
  2  3  1  0      
  3  4  1  0      
  4  5  1  0      
  5  6  1  0      
  6  7  1  0      
  7  8  1  0      
  6  9  1  0      
  9 10  1  0      
 10 11  1  0      
 11 12  1  0      
 12 13  1  0      
 13 14  1  0      
 12 15  1  0      
 15 16  1  0      
 15 17  1  0      
 17 18  1  0      
 17 19  1  0      
 10 19  1  0      
 19 20  1  0      
  6 21  1  0      
 21 22  1  0      
 22 23  1  0      
 23 24  1  0      
 24 25  1  0      
 25 26  1  0      
 26 27  1  0      
 25 28  1  0      
 28 29  1  0      
 28 30  1  0      
 30 31  1  0      
 30 32  1  0      
 23 32  1  0      
 32 33  1  0      
 21 34  1  0      
  4 34  1  0      
 34 35  1  0      
M  END
>  <Bioactivity>
Melezitose, also spelled melicitose, is a nonreducing trisaccharide sugar that is produced by many plant sap eating insects, including aphids such as Cinara pilicornis by an enzyme reaction. 

>  <CAS>
207511-10-2

>  <Col>
10

>  <Formula>
C18H34O17

>  <ID>
T3016

>  <Index>
269

>  <MOLENAME>
Melezitose

>  <MolWt>
504.45

>  <Pathways>
Others

>  <Plate>
PLATE 004

>  <QR code>
1151476833

>  <Receptor>
Others

>  <Reference>
1. Carvalho L,et al. Eur J Pharm Biopharm. 2015 May;92:139-45. 

>  <Row>
C

>  <SMILES>
O.OCC1OC(CO)(OC2OC(CO)C(O)C(O)C2O)C(OC2OC(CO)C(O)C(O)C2O)C1O

>  <Target>
Others

>  <Weight>
10.1mg

$$$$
Lab-1.sdf
  ChemDraw05232018482D

 23 26  0  0  0  0  0  0  0  0999 V2000
   -3.7637    0.0000    0.0000 C   0  0  0  0  0  0  0  0  0  0  0  0
   -3.2573    0.0000    0.0000 C   0  0  0  0  0  0  0  0  0  0  0  0
   -3.5682    0.0000    0.0000 O   0  0  0  0  0  0  0  0  0  0  0  0
   -2.4401    0.0000    0.0000 O   0  0  0  0  0  0  0  0  0  0  0  0
   -1.9336    0.0000    0.0000 C   0  0  0  0  0  0  0  0  0  0  0  0
   -2.1629    0.0000    0.0000 C   0  0  0  0  0  0  0  0  0  0  0  0
   -1.4801    0.0000    0.0000 C   0  0  0  0  0  0  0  0  0  0  0  0
   -0.8288    0.0000    0.0000 C   0  0  0  0  0  0  0  0  0  0  0  0
   -0.0166    0.0000    0.0000 C   0  0  0  0  0  0  0  0  0  0  0  0
    0.2636    0.0000    0.0000 C   0  0  0  0  0  0  0  0  0  0  0  0
    1.0758    0.0000    0.0000 C   0  0  0  0  0  0  0  0  0  0  0  0
    1.6076    0.0000    0.0000 C   0  0  0  0  0  0  0  0  0  0  0  0
    2.4198    0.0000    0.0000 C   0  0  0  0  0  0  0  0  0  0  0  0
    2.9516    0.0000    0.0000 C   0  0  0  0  0  0  0  0  0  0  0  0
    3.7637    0.0000    0.0000 O   0  0  0  0  0  0  0  0  0  0  0  0
    2.6713    0.0000    0.0000 C   0  0  0  0  0  0  0  0  0  0  0  0
    1.8591    0.0000    0.0000 C   0  0  0  0  0  0  0  0  0  0  0  0
    1.3273    0.0000    0.0000 C   0  0  0  0  0  0  0  0  0  0  0  0
    0.5152    0.0000    0.0000 C   0  0  0  0  0  0  0  0  0  0  0  0
    0.2349    0.0000    0.0000 C   0  0  0  0  0  0  0  0  0  0  0  0
   -0.5772    0.0000    0.0000 C   0  0  0  0  0  0  0  0  0  0  0  0
   -1.1091    0.0000    0.0000 C   0  0  0  0  0  0  0  0  0  0  0  0
   -1.4689    0.0000    0.0000 C   0  0  0  0  0  0  0  0  0  0  0  0
  1  2  1  0      
  2  3  2  0      
  2  4  1  0      
  4  5  1  0      
  5  6  1  0      
  6  7  1  0      
  7  8  1  0      
  8  9  1  0      
  9 10  1  0      
 10 11  1  0      
 11 12  1  0      
 12 13  2  0      
 13 14  1  0      
 14 15  2  0      
 14 16  1  0      
 16 17  1  0      
 17 18  1  0      
 12 18  1  0      
 18 19  2  0      
  9 19  1  0      
 19 20  1  0      
 20 21  2  0      
 21 22  1  0      
  5 22  1  0      
  8 22  1  0      
 22 23  1  0      
M  END
>  <Bioactivity>
Trenbolone acetate (TBA; RU1697; Finaplix) is a synthetic androgen steroid with anabolic properties.

>  <CAS>
10161-34-9

>  <Col>
11

>  <Formula>
C20H24O3

>  <ID>
T3017

>  <Index>
270

>  <MOLENAME>
Trenbolone acetate

>  <MolWt>
312.4

>  <Pathways>
Endocrinology/ Hormones

>  <Plate>
PLATE 004

>  <QR code>
1151476832

>  <Receptor>
Androgen Receptor

>  <Reference>
1. Forsgren KL, et al. Gen Comp Endocrinol. 2014 Jun 1;202:1-7.

>  <Row>
C

>  <SMILES>
CC(=O)OC1CCC2C3CCC4=CC(=O)CCC4=C3C=CC12C

>  <Target>
Androgen Receptor agonist

>  <Weight>
10.3mg

$$$$
Lab-1.sdf
  ChemDraw05232018482D

 26 28  0  0  0  0  0  0  0  0999 V2000
    1.7064    0.0000    0.0000 O   0  0  0  0  0  0  0  0  0  0  0  0
    0.9920    0.0000    0.0000 C   0  0  0  0  0  0  0  0  0  0  0  0
    0.9920    0.0000    0.0000 C   0  0  0  0  0  0  0  0  0  0  0  0
    0.2775    0.0000    0.0000 O   0  0  0  0  0  0  0  0  0  0  0  0
    0.2775    0.0000    0.0000 C   0  0  0  0  0  0  0  0  0  0  0  0
   -0.4370    0.0000    0.0000 O   0  0  0  0  0  0  0  0  0  0  0  0
   -0.4370    0.0000    0.0000 C   0  0  0  0  0  0  0  0  0  0  0  0
    0.2775    0.0000    0.0000 O   0  0  0  0  0  0  0  0  0  0  0  0
    0.2775    0.0000    0.0000 C   0  0  0  0  0  0  0  0  0  0  0  0
   -0.4370    0.0000    0.0000 C   0  0  0  0  0  0  0  0  0  0  0  0
   -1.1513    0.0000    0.0000 C   0  0  0  0  0  0  0  0  0  0  0  0
   -1.9360    0.0000    0.0000 C   0  0  0  0  0  0  0  0  0  0  0  0
   -2.4209    0.0000    0.0000 C   0  0  0  0  0  0  0  0  0  0  0  0
   -1.9360    0.0000    0.0000 C   0  0  0  0  0  0  0  0  0  0  0  0
   -2.1909    0.0000    0.0000 C   0  0  0  0  0  0  0  0  0  0  0  0
   -1.6390    0.0000    0.0000 O   0  0  0  0  0  0  0  0  0  0  0  0
   -1.1513    0.0000    0.0000 C   0  0  0  0  0  0  0  0  0  0  0  0
   -0.4370    0.0000    0.0000 C   0  0  0  0  0  0  0  0  0  0  0  0
    0.2775    0.0000    0.0000 O   0  0  0  0  0  0  0  0  0  0  0  0
   -1.1513    0.0000    0.0000 O   0  0  0  0  0  0  0  0  0  0  0  0
    0.9920    0.0000    0.0000 C   0  0  0  0  0  0  0  0  0  0  0  0
    0.9920    0.0000    0.0000 O   0  0  0  0  0  0  0  0  0  0  0  0
    1.7064    0.0000    0.0000 C   0  0  0  0  0  0  0  0  0  0  0  0
    2.4209    0.0000    0.0000 O   0  0  0  0  0  0  0  0  0  0  0  0
    1.7064    0.0000    0.0000 C   0  0  0  0  0  0  0  0  0  0  0  0
    2.4209    0.0000    0.0000 O   0  0  0  0  0  0  0  0  0  0  0  0
  1  2  1  0      
  2  3  1  0      
  3  4  1  0      
  4  5  1  0      
  5  6  1  0      
  6  7  1  0      
  7  8  1  0      
  8  9  1  0      
  9 10  2  0      
 10 11  1  0      
 11 12  1  0      
 12 13  1  0      
 13 14  2  0      
 14 15  1  0      
 15 16  1  0      
 14 17  1  0      
  7 17  1  0      
 11 17  1  0      
 10 18  1  0      
 18 19  1  0      
 18 20  2  0      
  5 21  1  0      
 21 22  1  0      
 21 23  1  0      
 23 24  1  0      
 23 25  1  0      
  3 25  1  0      
 25 26  1  0      
M  END
>  <Bioactivity>
Geniposidic acid is an iridoid glucoside, used to treat inflammation, jaundice and hepatic disorders.

>  <CAS>
27741-01-1

>  <Col>
2

>  <Formula>
C16H22O10

>  <ID>
T2136

>  <Index>
271

>  <MOLENAME>
Geniposidic Acid

>  <MolWt>
374.34

>  <Pathways>
Others

>  <Plate>
PLATE 004

>  <QR code>
1151476820

>  <Receptor>
Others

>  <Reference>
1. Kim SJ, et al. J Ethnopharmacol. 2013 Mar 7;146(1):271-7. 

>  <Row>
D

>  <SMILES>
OCC1OC(OC2OC=C(C3CC=C(CO)C23)C(O)=O)C(O)C(O)C1O

>  <Target>
Others

>  <Weight>
10.2mg

$$$$
Lab-1.sdf
  ChemDraw05232018482D

 10 10  0  0  0  0  0  0  0  0999 V2000
   -0.3572    0.0000    0.0000 O   0  0  0  0  0  0  0  0  0  0  0  0
   -0.3572    0.0000    0.0000 C   0  0  0  0  0  0  0  0  0  0  0  0
    0.3572    0.0000    0.0000 C   0  0  0  0  0  0  0  0  0  0  0  0
    1.0717    0.0000    0.0000 O   0  0  0  0  0  0  0  0  0  0  0  0
    0.3572    0.0000    0.0000 C   0  0  0  0  0  0  0  0  0  0  0  0
   -0.3572    0.0000    0.0000 C   0  0  0  0  0  0  0  0  0  0  0  0
   -0.3572    0.0000    0.0000 C   0  0  0  0  0  0  0  0  0  0  0  0
    0.3572    0.0000    0.0000 O   0  0  0  0  0  0  0  0  0  0  0  0
   -1.0717    0.0000    0.0000 C   0  0  0  0  0  0  0  0  0  0  0  0
   -1.0717    0.0000    0.0000 C   0  0  0  0  0  0  0  0  0  0  0  0
  1  2  1  0      
  2  3  2  0      
  3  4  1  0      
  3  5  1  0      
  5  6  2  0      
  6  7  1  0      
  7  8  2  0      
  6  9  1  0      
  9 10  2  0      
  2 10  1  0      
M  END
>  <Bioactivity>
Extracted from Stenoloma chusanum(L.)Ching leaves;Store the product in sealed, cool and dry condition

>  <CAS>
139-85-5

>  <Col>
3

>  <Formula>
C7H6O3

>  <ID>
T3018

>  <Index>
272

>  <MOLENAME>
Protocatechualdehyde

>  <MolWt>
138.12

>  <Pathways>
Others

>  <Plate>
PLATE 004

>  <QR code>
1151476821

>  <Receptor>
Others

>  <Reference>
1. Kono R, et al. Acta Histochem Cytochem. 2014 Jun 28;47(3):103-12. 

>  <Row>
D

>  <SMILES>
OC1=C(O)C=C(C=O)C=C1

>  <Target>
Others

>  <Weight>
10mg

$$$$
Lab-1.sdf
  ChemDraw05232018482D

 21 23  0  0  0  0  0  0  0  0999 V2000
   -2.8578    0.0000    0.0000 C   0  0  0  0  0  0  0  0  0  0  0  0
   -2.8578    0.0000    0.0000 O   0  0  0  0  0  0  0  0  0  0  0  0
   -2.1434    0.0000    0.0000 C   0  0  0  0  0  0  0  0  0  0  0  0
   -2.1434    0.0000    0.0000 C   0  0  0  0  0  0  0  0  0  0  0  0
   -1.4290    0.0000    0.0000 C   0  0  0  0  0  0  0  0  0  0  0  0
   -1.4290    0.0000    0.0000 O   0  0  0  0  0  0  0  0  0  0  0  0
   -0.7144    0.0000    0.0000 C   0  0  0  0  0  0  0  0  0  0  0  0
    0.0000    0.0000    0.0000 C   0  0  0  0  0  0  0  0  0  0  0  0
    0.0000    0.0000    0.0000 O   0  0  0  0  0  0  0  0  0  0  0  0
    0.7144    0.0000    0.0000 C   0  0  0  0  0  0  0  0  0  0  0  0
    1.4289    0.0000    0.0000 C   0  0  0  0  0  0  0  0  0  0  0  0
    1.4289    0.0000    0.0000 O   0  0  0  0  0  0  0  0  0  0  0  0
    2.1434    0.0000    0.0000 C   0  0  0  0  0  0  0  0  0  0  0  0
    2.1434    0.0000    0.0000 C   0  0  0  0  0  0  0  0  0  0  0  0
    2.8578    0.0000    0.0000 C   0  0  0  0  0  0  0  0  0  0  0  0
    1.4289    0.0000    0.0000 C   0  0  0  0  0  0  0  0  0  0  0  0
    0.7144    0.0000    0.0000 C   0  0  0  0  0  0  0  0  0  0  0  0
    0.0000    0.0000    0.0000 C   0  0  0  0  0  0  0  0  0  0  0  0
    0.0000    0.0000    0.0000 O   0  0  0  0  0  0  0  0  0  0  0  0
   -0.7144    0.0000    0.0000 C   0  0  0  0  0  0  0  0  0  0  0  0
   -1.4290    0.0000    0.0000 C   0  0  0  0  0  0  0  0  0  0  0  0
  1  2  1  0      
  2  3  1  0      
  3  4  2  0      
  4  5  1  0      
  5  6  1  0      
  5  7  2  0      
  7  8  1  0      
  8  9  2  0      
  8 10  1  0      
 10 11  2  0      
 11 12  1  0      
 11 13  1  0      
 13 14  2  0      
 14 15  1  0      
 14 16  1  0      
 16 17  2  0      
 10 17  1  0      
 17 18  1  0      
 18 19  2  0      
 18 20  1  0      
  7 20  1  0      
 20 21  2  0      
  3 21  1  0      
M  END
>  <Bioactivity>
Physcion is an anthraquinone from roots of Rheum officinale Baill.

>  <CAS>
521-61-9

>  <Col>
4

>  <Formula>
C16H12O5

>  <ID>
T3019

>  <Index>
273

>  <MOLENAME>
Rheochrysidin

>  <MolWt>
284.27

>  <Pathways>
Others

>  <Plate>
PLATE 004

>  <QR code>
1151476822

>  <Receptor>
Others

>  <Reference>
1. Ma X, et al. Pest Manag Sci, 2010, 66(7), 718-724.

>  <Row>
D

>  <SMILES>
COC1=CC(O)=C2C(=O)C3=C(O)C=C(C)C=C3C(=O)C2=C1

>  <Target>
Others

>  <Weight>
10mg

$$$$
Lab-1.sdf
  ChemDraw05232018482D

 22 23  0  0  0  0  0  0  0  0999 V2000
   -0.4188    0.0000    0.0000 C   0  0  0  0  0  0  0  0  0  0  0  0
    0.4062    0.0000    0.0000 C   0  0  0  0  0  0  0  0  0  0  0  0
    1.2312    0.0000    0.0000 O   0  0  0  0  0  0  0  0  0  0  0  0
    0.4062    0.0000    0.0000 C   0  0  0  0  0  0  0  0  0  0  0  0
   -0.3083    0.0000    0.0000 C   0  0  0  0  0  0  0  0  0  0  0  0
   -0.3083    0.0000    0.0000 C   0  0  0  0  0  0  0  0  0  0  0  0
   -1.0227    0.0000    0.0000 C   0  0  0  0  0  0  0  0  0  0  0  0
   -1.3049    0.0000    0.0000 C   0  0  0  0  0  0  0  0  0  0  0  0
   -1.8352    0.0000    0.0000 O   0  0  0  0  0  0  0  0  0  0  0  0
   -1.0227    0.0000    0.0000 C   0  0  0  0  0  0  0  0  0  0  0  0
   -0.3083    0.0000    0.0000 C   0  0  0  0  0  0  0  0  0  0  0  0
    0.4062    0.0000    0.0000 C   0  0  0  0  0  0  0  0  0  0  0  0
    1.1207    0.0000    0.0000 C   0  0  0  0  0  0  0  0  0  0  0  0
    0.5904    0.0000    0.0000 C   0  0  0  0  0  0  0  0  0  0  0  0
    1.6510    0.0000    0.0000 C   0  0  0  0  0  0  0  0  0  0  0  0
    1.8352    0.0000    0.0000 C   0  0  0  0  0  0  0  0  0  0  0  0
    1.8352    0.0000    0.0000 C   0  0  0  0  0  0  0  0  0  0  0  0
    1.1207    0.0000    0.0000 C   0  0  0  0  0  0  0  0  0  0  0  0
    0.4062    0.0000    0.0000 C   0  0  0  0  0  0  0  0  0  0  0  0
    0.4062    0.0000    0.0000 C   0  0  0  0  0  0  0  0  0  0  0  0
    0.4062    0.0000    0.0000 C   0  0  0  0  0  0  0  0  0  0  0  0
    1.1207    0.0000    0.0000 C   0  0  0  0  0  0  0  0  0  0  0  0
  1  2  1  0      
  2  3  1  0      
  2  4  1  0      
  4  5  1  0      
  5  6  1  0      
  6  7  1  0      
  7  8  1  0      
  7  9  1  0      
  7 10  1  0      
 10 11  1  0      
 11 12  1  0      
 12 13  1  0      
 13 14  1  0      
 13 15  1  0      
 13 16  1  0      
 16 17  1  0      
 17 18  1  0      
 18 19  1  0      
  6 19  1  0      
 12 19  1  0      
 19 20  1  0      
  2 21  1  0      
 21 22  2  0      
M  END
>  <Bioactivity>
Sclareol, a labdane-type diterpene isolated from clary sage (Salvia sclarea), exerts growth inhibition and cytotoxic activity against a variety of human Y cell lines. Extracted from Salvia SclareL. in
florescence,stem and leaf;Store?the?product?in?sealed,?cool?and?dry?condition

>  <CAS>
515-03-7

>  <Col>
5

>  <Formula>
C20H36O2

>  <ID>
T3020

>  <Index>
274

>  <MOLENAME>
Sclareol

>  <MolWt>
308.51

>  <Pathways>
Others

>  <Plate>
PLATE 004

>  <QR code>
1151476823

>  <Receptor>
Others

>  <Reference>
1. Dimas K, et al. Biomed PharmacOthers, 2006, 60(3), 127-133.

>  <Row>
D

>  <SMILES>
CC(O)(CCC1C(C)(O)CCC2C(C)(C)CCCC12C)C=C

>  <Target>
Others

>  <Weight>
10.2mg

$$$$
Lab-1.sdf
  ChemDraw05232018482D

 34 38  0  0  0  0  0  0  0  0999 V2000
   -2.9754    0.0000    0.0000 C   0  0  0  0  0  0  0  0  0  0  0  0
   -3.1186    0.0000    0.0000 C   0  0  0  0  0  0  0  0  0  0  0  0
   -3.8939    0.0000    0.0000 C   0  0  0  0  0  0  0  0  0  0  0  0
   -3.5311    0.0000    0.0000 C   0  0  0  0  0  0  0  0  0  0  0  0
   -3.1186    0.0000    0.0000 C   0  0  0  0  0  0  0  0  0  0  0  0
   -2.2936    0.0000    0.0000 C   0  0  0  0  0  0  0  0  0  0  0  0
   -1.8811    0.0000    0.0000 C   0  0  0  0  0  0  0  0  0  0  0  0
   -1.0561    0.0000    0.0000 C   0  0  0  0  0  0  0  0  0  0  0  0
   -0.6436    0.0000    0.0000 C   0  0  0  0  0  0  0  0  0  0  0  0
   -0.2311    0.0000    0.0000 C   0  0  0  0  0  0  0  0  0  0  0  0
   -1.0561    0.0000    0.0000 C   0  0  0  0  0  0  0  0  0  0  0  0
   -0.6436    0.0000    0.0000 C   0  0  0  0  0  0  0  0  0  0  0  0
    0.1814    0.0000    0.0000 C   0  0  0  0  0  0  0  0  0  0  0  0
    0.5939    0.0000    0.0000 C   0  0  0  0  0  0  0  0  0  0  0  0
    1.4189    0.0000    0.0000 C   0  0  0  0  0  0  0  0  0  0  0  0
    1.0064    0.0000    0.0000 C   0  0  0  0  0  0  0  0  0  0  0  0
    1.8314    0.0000    0.0000 C   0  0  0  0  0  0  0  0  0  0  0  0
    2.6564    0.0000    0.0000 C   0  0  0  0  0  0  0  0  0  0  0  0
    3.0689    0.0000    0.0000 C   0  0  0  0  0  0  0  0  0  0  0  0
    3.8939    0.0000    0.0000 O   0  0  0  0  0  0  0  0  0  0  0  0
    2.6564    0.0000    0.0000 C   0  0  0  0  0  0  0  0  0  0  0  0
    2.5131    0.0000    0.0000 C   0  0  0  0  0  0  0  0  0  0  0  0
    3.4316    0.0000    0.0000 C   0  0  0  0  0  0  0  0  0  0  0  0
    3.5749    0.0000    0.0000 O   0  0  0  0  0  0  0  0  0  0  0  0
    1.8314    0.0000    0.0000 C   0  0  0  0  0  0  0  0  0  0  0  0
    1.4189    0.0000    0.0000 C   0  0  0  0  0  0  0  0  0  0  0  0
    0.5939    0.0000    0.0000 C   0  0  0  0  0  0  0  0  0  0  0  0
    0.1814    0.0000    0.0000 C   0  0  0  0  0  0  0  0  0  0  0  0
    0.2676    0.0000    0.0000 C   0  0  0  0  0  0  0  0  0  0  0  0
   -1.8811    0.0000    0.0000 C   0  0  0  0  0  0  0  0  0  0  0  0
   -2.2936    0.0000    0.0000 C   0  0  0  0  0  0  0  0  0  0  0  0
   -2.7061    0.0000    0.0000 C   0  0  0  0  0  0  0  0  0  0  0  0
   -3.5311    0.0000    0.0000 O   0  0  0  0  0  0  0  0  0  0  0  0
   -2.2936    0.0000    0.0000 O   0  0  0  0  0  0  0  0  0  0  0  0
  1  2  1  0      
  2  3  1  0      
  2  4  1  0      
  4  5  1  0      
  5  6  1  0      
  6  7  1  0      
  7  8  1  0      
  8  9  1  0      
  9 10  1  0      
  9 11  1  0      
 11 12  2  0      
 12 13  1  0      
 13 14  1  0      
 14 15  1  0      
 15 16  1  0      
 15 17  1  0      
 17 18  1  0      
 18 19  1  0      
 19 20  1  0      
 19 21  1  0      
 21 22  1  0      
 21 23  1  0      
 23 24  1  0      
 21 25  1  0      
 15 25  1  0      
 25 26  1  0      
 26 27  1  0      
 27 28  1  0      
  9 28  1  0      
 14 28  1  0      
 28 29  1  0      
 11 30  1  0      
  6 30  1  0      
 30 31  1  0      
  2 31  1  0      
  6 32  1  0      
 32 33  1  0      
 32 34  2  0      
M  END
>  <Bioactivity>
Extracted from HederanepalensisK.Kochvar.sinensis£¨Tobl.£©Rehd.;Suitability:Hot water,hot methanol and ethanol;Store the product in sealed,cool and dry condition

>  <CAS>
465-99-6

>  <Col>
6

>  <Formula>
C30H48O4

>  <ID>
T3039

>  <Index>
275

>  <MOLENAME>
Hederagenin

>  <MolWt>
472.71

>  <Pathways>
Others

>  <Plate>
PLATE 004

>  <QR code>
1151476824

>  <Receptor>
Others

>  <Reference>
1. Lee CW, et al. Int Immunopharmacol. 2015 Dec;29(2):528-37.

>  <Row>
D

>  <SMILES>
CC1(C)CCC2(CCC3(C)C(=CCC4C5(C)CCC(O)C(C)(CO)C5CCC34C)C2C1)C(O)=O

>  <Target>
Others

>  <Weight>
10.1mg

$$$$
Lab-1.sdf
  ChemDraw05232018482D

 20 21  0  0  0  0  0  0  0  0999 V2000
    1.7861    0.0000    0.0000 C   0  0  0  0  0  0  0  0  0  0  0  0
    1.7861    0.0000    0.0000 C   0  0  0  0  0  0  0  0  0  0  0  0
    2.5006    0.0000    0.0000 C   0  0  0  0  0  0  0  0  0  0  0  0
    2.5006    0.0000    0.0000 C   0  0  0  0  0  0  0  0  0  0  0  0
    1.7861    0.0000    0.0000 C   0  0  0  0  0  0  0  0  0  0  0  0
    1.0717    0.0000    0.0000 C   0  0  0  0  0  0  0  0  0  0  0  0
    0.3572    0.0000    0.0000 C   0  0  0  0  0  0  0  0  0  0  0  0
    1.0717    0.0000    0.0000 C   0  0  0  0  0  0  0  0  0  0  0  0
    0.3572    0.0000    0.0000 N   0  0  0  0  0  0  0  0  0  0  0  0
   -0.3573    0.0000    0.0000 C   0  0  0  0  0  0  0  0  0  0  0  0
   -0.3573    0.0000    0.0000 O   0  0  0  0  0  0  0  0  0  0  0  0
   -1.0717    0.0000    0.0000 C   0  0  0  0  0  0  0  0  0  0  0  0
   -1.7861    0.0000    0.0000 C   0  0  0  0  0  0  0  0  0  0  0  0
   -2.5006    0.0000    0.0000 C   0  0  0  0  0  0  0  0  0  0  0  0
   -2.5006    0.0000    0.0000 C   0  0  0  0  0  0  0  0  0  0  0  0
   -1.7861    0.0000    0.0000 C   0  0  0  0  0  0  0  0  0  0  0  0
   -1.0717    0.0000    0.0000 C   0  0  0  0  0  0  0  0  0  0  0  0
   -0.3573    0.0000    0.0000 C   0  0  0  0  0  0  0  0  0  0  0  0
    0.3572    0.0000    0.0000 O   0  0  0  0  0  0  0  0  0  0  0  0
   -0.3573    0.0000    0.0000 O   0  0  0  0  0  0  0  0  0  0  0  0
  1  2  1  0      
  2  3  2  0      
  3  4  1  0      
  4  5  2  0      
  5  6  1  0      
  6  7  1  0      
  6  8  2  0      
  2  8  1  0      
  8  9  1  0      
  9 10  1  0      
 10 11  2  0      
 10 12  1  0      
 12 13  2  0      
 13 14  1  0      
 14 15  2  0      
 15 16  1  0      
 16 17  2  0      
 12 17  1  0      
 17 18  1  0      
 18 19  1  0      
 18 20  2  0      
M  END
>  <Bioactivity>
Ftaxilide has the property of antibacterial, used as antiseptic.

>  <CAS>
19368-18-4

>  <Col>
7

>  <Formula>
C16H15NO3

>  <ID>
T0144

>  <Index>
276

>  <MOLENAME>
Ftaxilide

>  <MolWt>
269.3

>  <Pathways>
Microbiology & Virology

>  <Plate>
PLATE 004

>  <QR code>
1151476825

>  <Receptor>
Others

>  <Reference>
N/A

>  <Row>
D

>  <SMILES>
CC1=CC=CC(C)=C1NC(=O)C1=CC=CC=C1C(O)=O

>  <Target>
Antibacterial

>  <Weight>
10.2mg

$$$$
Lab-1.sdf
  ChemDraw05232018482D

 26 30  0  0  0  0  0  0  0  0999 V2000
    2.2264    0.0000    0.0000 C   0  0  0  0  0  0  0  0  0  0  0  0
    1.4027    0.0000    0.0000 C   0  0  0  0  0  0  0  0  0  0  0  0
    1.0317    0.0000    0.0000 O   0  0  0  0  0  0  0  0  0  0  0  0
    0.2081    0.0000    0.0000 C   0  0  0  0  0  0  0  0  0  0  0  0
   -0.2445    0.0000    0.0000 O   0  0  0  0  0  0  0  0  0  0  0  0
   -0.1628    0.0000    0.0000 C   0  0  0  0  0  0  0  0  0  0  0  0
   -0.9865    0.0000    0.0000 C   0  0  0  0  0  0  0  0  0  0  0  0
   -1.3575    0.0000    0.0000 C   0  0  0  0  0  0  0  0  0  0  0  0
   -1.8101    0.0000    0.0000 C   0  0  0  0  0  0  0  0  0  0  0  0
   -2.6338    0.0000    0.0000 C   0  0  0  0  0  0  0  0  0  0  0  0
   -2.1811    0.0000    0.0000 C   0  0  0  0  0  0  0  0  0  0  0  0
   -2.5521    0.0000    0.0000 C   0  0  0  0  0  0  0  0  0  0  0  0
   -2.0995    0.0000    0.0000 C   0  0  0  0  0  0  0  0  0  0  0  0
   -1.2758    0.0000    0.0000 N   0  0  0  0  0  0  0  0  0  0  0  0
   -0.8231    0.0000    0.0000 C   0  0  0  0  0  0  0  0  0  0  0  0
    0.0004    0.0000    0.0000 C   0  0  0  0  0  0  0  0  0  0  0  0
    0.3714    0.0000    0.0000 C   0  0  0  0  0  0  0  0  0  0  0  0
   -0.0812    0.0000    0.0000 C   0  0  0  0  0  0  0  0  0  0  0  0
   -0.9048    0.0000    0.0000 C   0  0  0  0  0  0  0  0  0  0  0  0
    0.2897    0.0000    0.0000 N   0  0  0  0  0  0  0  0  0  0  0  0
    1.2065    0.0000    0.0000 C   0  0  0  0  0  0  0  0  0  0  0  0
    1.9397    0.0000    0.0000 C   0  0  0  0  0  0  0  0  0  0  0  0
    2.6338    0.0000    0.0000 C   0  0  0  0  0  0  0  0  0  0  0  0
    2.5946    0.0000    0.0000 C   0  0  0  0  0  0  0  0  0  0  0  0
    1.8613    0.0000    0.0000 C   0  0  0  0  0  0  0  0  0  0  0  0
    1.1673    0.0000    0.0000 C   0  0  0  0  0  0  0  0  0  0  0  0
  1  2  1  0      
  2  3  1  0      
  3  4  1  0      
  4  5  2  0      
  4  6  1  0      
  6  7  2  0      
  7  8  1  0      
  8  9  1  0      
  9 10  1  0      
  8 11  1  0      
 11 12  1  0      
 12 13  1  0      
 13 14  1  0      
 14 15  1  0      
 15 16  1  0      
 16 17  1  0      
 17 18  2  0      
 18 19  1  0      
  8 19  1  0      
 14 19  1  0      
 18 20  1  0      
  6 20  1  0      
 20 21  1  0      
 21 22  2  0      
 22 23  1  0      
 23 24  2  0      
 24 25  1  0      
 25 26  2  0      
 17 26  1  0      
 21 26  1  0      
M  END
>  <Bioactivity>
Vinpocetine is a selective inhibitor of cyclic GMP phosphodiesterase (PDE).

>  <CAS>
42971-09-5

>  <Col>
8

>  <Formula>
C22H26N2O2

>  <ID>
T0167

>  <Index>
277

>  <MOLENAME>
Vinpocetine

>  <MolWt>
350.45

>  <Pathways>
Immunology/Inflammation; Metabolism;Membrane Transporter/Ion Channel

>  <Plate>
PLATE 004

>  <QR code>
1151476826

>  <Receptor>
NF-¦ÊB; PDE; Sodium channel

>  <Reference>
1. Medina AE, et al. Proc Natl Acad Sci U S A. 2010 Jun 1; 107(22):9921-2.

>  <Row>
D

>  <SMILES>
CCOC(=O)C1=CC2(CC)CCCN3CCC4=C(C23)N1C1=CC=CC=C41

>  <Target>
NF-¦ÊB inhibitor; PDE inhibitor; Sodium Channel inhibitor

>  <Weight>
10.2mg

$$$$
Lab-1.sdf
  ChemDraw05232018482D

 12 13  0  0  0  0  0  0  0  0999 V2000
   -1.7652    0.0000    0.0000 N   0  0  0  0  0  0  0  0  0  0  0  0
   -1.5103    0.0000    0.0000 C   0  0  0  0  0  0  0  0  0  0  0  0
   -0.7033    0.0000    0.0000 C   0  0  0  0  0  0  0  0  0  0  0  0
   -0.4484    0.0000    0.0000 C   0  0  0  0  0  0  0  0  0  0  0  0
   -0.9333    0.0000    0.0000 C   0  0  0  0  0  0  0  0  0  0  0  0
   -0.4484    0.0000    0.0000 N   0  0  0  0  0  0  0  0  0  0  0  0
    0.3362    0.0000    0.0000 C   0  0  0  0  0  0  0  0  0  0  0  0
    1.0507    0.0000    0.0000 C   0  0  0  0  0  0  0  0  0  0  0  0
    1.7652    0.0000    0.0000 C   0  0  0  0  0  0  0  0  0  0  0  0
    1.7652    0.0000    0.0000 C   0  0  0  0  0  0  0  0  0  0  0  0
    1.0507    0.0000    0.0000 C   0  0  0  0  0  0  0  0  0  0  0  0
    0.3362    0.0000    0.0000 C   0  0  0  0  0  0  0  0  0  0  0  0
  1  2  1  0      
  2  3  1  0      
  3  4  1  0      
  4  5  2  0      
  5  6  1  0      
  6  7  1  0      
  7  8  2  0      
  8  9  1  0      
  9 10  2  0      
 10 11  1  0      
 11 12  2  0      
  4 12  1  0      
  7 12  1  0      
M  END
>  <Bioactivity>
Tryptamine is a monoamine alkaloid found in plants, fungi, and animals. It contains an indole ring structure, and is structurally similar to the amino acid tryptophan, from which it derives its name. 
Tryptamine is found in trace amounts in the brains of mammals and is believed to play a role as a neuromodulator or neurotransmitter.

>  <CAS>
61-54-1

>  <Col>
9

>  <Formula>
C10H12N2

>  <ID>
T0647

>  <Index>
278

>  <MOLENAME>
Tryptamine

>  <MolWt>
160.22

>  <Pathways>
Metabolism

>  <Plate>
PLATE 004

>  <QR code>
1151476827

>  <Receptor>
AADH

>  <Reference>
1. Berman HM, et al. Nucleic Acids Res. 2000 Jan 1;28(1):235-42. 

>  <Row>
D

>  <SMILES>
NCCC1=CNC2=CC=CC=C12

>  <Target>
Dehydrogenase

>  <Weight>
10.4mg

$$$$
Lab-1.sdf
  ChemDraw05232018482D

 20 23  0  0  0  0  0  0  0  0999 V2000
    1.3608    0.0000    0.0000 C   0  0  0  0  0  0  0  0  0  0  0  0
    0.6927    0.0000    0.0000 C   0  0  0  0  0  0  0  0  0  0  0  0
   -0.0051    0.0000    0.0000 C   0  0  0  0  0  0  0  0  0  0  0  0
   -0.5519    0.0000    0.0000 C   0  0  0  0  0  0  0  0  0  0  0  0
   -0.4586    0.0000    0.0000 C   0  0  0  0  0  0  0  0  0  0  0  0
   -1.2666    0.0000    0.0000 C   0  0  0  0  0  0  0  0  0  0  0  0
   -1.8102    0.0000    0.0000 C   0  0  0  0  0  0  0  0  0  0  0  0
   -1.5466    0.0000    0.0000 C   0  0  0  0  0  0  0  0  0  0  0  0
   -2.3059    0.0000    0.0000 O   0  0  0  0  0  0  0  0  0  0  0  0
   -0.8624    0.0000    0.0000 O   0  0  0  0  0  0  0  0  0  0  0  0
   -0.0716    0.0000    0.0000 C   0  0  0  0  0  0  0  0  0  0  0  0
    0.8334    0.0000    0.0000 O   0  0  0  0  0  0  0  0  0  0  0  0
    1.6408    0.0000    0.0000 C   0  0  0  0  0  0  0  0  0  0  0  0
    2.3059    0.0000    0.0000 C   0  0  0  0  0  0  0  0  0  0  0  0
    2.1121    0.0000    0.0000 C   0  0  0  0  0  0  0  0  0  0  0  0
    1.6378    0.0000    0.0000 C   0  0  0  0  0  0  0  0  0  0  0  0
    0.8058    0.0000    0.0000 C   0  0  0  0  0  0  0  0  0  0  0  0
    0.2617    0.0000    0.0000 C   0  0  0  0  0  0  0  0  0  0  0  0
    0.4932    0.0000    0.0000 O   0  0  0  0  0  0  0  0  0  0  0  0
    1.1979    0.0000    0.0000 O   0  0  0  0  0  0  0  0  0  0  0  0
  1  2  1  0      
  2  3  1  0      
  3  4  1  0      
  4  5  1  0      
  5  6  1  0      
  6  7  1  0      
  6  8  1  0      
  8  9  1  0      
  8 10  1  0      
 10 11  1  0      
 11 12  1  0      
 12 13  1  0      
 13 14  1  0      
 13 15  1  0      
 15 16  1  0      
 16 17  1  0      
  2 17  1  0      
 17 18  1  0      
  5 18  1  0      
 11 18  1  0      
 18 19  1  0      
 19 20  1  0      
 13 20  1  0      
M  END
>  <Bioactivity>
Dihydroartemisinin (DHA) is a semi-synthetic derivative of artemisinin and isolated from the traditional Chinese herb Artemisia annua.

>  <CAS>
71939-50-9

>  <Col>
10

>  <Formula>
C15H24O5

>  <ID>
T0607

>  <Index>
279

>  <MOLENAME>
Dihydroartemisinin

>  <MolWt>
284.35

>  <Pathways>
Others

>  <Plate>
PLATE 004

>  <QR code>
1151476828

>  <Receptor>
Others

>  <Reference>
1. Yang D, et al. Int J Clin Exp Pathol. 2015 Feb 1;8(2):1270-81.

>  <Row>
D

>  <SMILES>
CC1CCC2C(C)C(O)OC3OC4(C)CCC1C23OO4

>  <Target>
Others

>  <Weight>
10.3mg

$$$$
Lab-1.sdf
  ChemDraw05232018482D

 18 19  0  0  0  0  0  0  0  0999 V2000
   -1.7862    0.0000    0.0000 O   0  0  0  0  0  0  0  0  0  0  0  0
   -1.7862    0.0000    0.0000 C   0  0  0  0  0  0  0  0  0  0  0  0
   -1.0717    0.0000    0.0000 C   0  0  0  0  0  0  0  0  0  0  0  0
   -1.0717    0.0000    0.0000 C   0  0  0  0  0  0  0  0  0  0  0  0
   -0.3572    0.0000    0.0000 C   0  0  0  0  0  0  0  0  0  0  0  0
    0.3573    0.0000    0.0000 C   0  0  0  0  0  0  0  0  0  0  0  0
    1.0717    0.0000    0.0000 C   0  0  0  0  0  0  0  0  0  0  0  0
    1.7862    0.0000    0.0000 C   0  0  0  0  0  0  0  0  0  0  0  0
    2.5007    0.0000    0.0000 C   0  0  0  0  0  0  0  0  0  0  0  0
    3.2151    0.0000    0.0000 O   0  0  0  0  0  0  0  0  0  0  0  0
    2.5007    0.0000    0.0000 C   0  0  0  0  0  0  0  0  0  0  0  0
    3.2151    0.0000    0.0000 O   0  0  0  0  0  0  0  0  0  0  0  0
    1.7862    0.0000    0.0000 C   0  0  0  0  0  0  0  0  0  0  0  0
    1.0717    0.0000    0.0000 C   0  0  0  0  0  0  0  0  0  0  0  0
   -1.7862    0.0000    0.0000 C   0  0  0  0  0  0  0  0  0  0  0  0
   -2.5006    0.0000    0.0000 C   0  0  0  0  0  0  0  0  0  0  0  0
   -3.2151    0.0000    0.0000 O   0  0  0  0  0  0  0  0  0  0  0  0
   -2.5006    0.0000    0.0000 C   0  0  0  0  0  0  0  0  0  0  0  0
  1  2  1  0      
  2  3  2  0      
  3  4  1  0      
  5  4  1  4      
  5  6  2  0      
  6  7  1  0      
  7  8  2  0      
  8  9  1  0      
  9 10  1  0      
  9 11  2  0      
 11 12  1  0      
 11 13  1  0      
 13 14  2  0      
  7 14  1  0      
  4 15  2  0      
 15 16  1  0      
 16 17  1  0      
 16 18  2  0      
  2 18  1  0      
M  END
>  <Bioactivity>
Anti-inflammatory, immunomodulatory and antiproliferative agent. Inhibits p56lck and syk protein tyrosine kinases and inhibits TNF-induced NF-¦ÊB activation and gene expression. Synthesis results from
 conversion of resveratrol by cytochrome P450 1B1.

>  <CAS>
10083-24-6

>  <Col>
11

>  <Formula>
C14H12O4

>  <ID>
T0610

>  <Index>
280

>  <MOLENAME>
Piceatannol

>  <MolWt>
244.24

>  <Pathways>
Angiogenesis

>  <Plate>
PLATE 004

>  <QR code>
1151476829

>  <Receptor>
Syk; I¦ÊB/IKK

>  <Reference>
1. Oliver JM, et al. J Biol Chem, 1994, 269(47), 29697-29703.

>  <Row>
D

>  <SMILES>
OC1=CC(C=CC2=CC(O)=C(O)C=C2)=CC(O)=C1

>  <Target>
Syk inhibitor; I¦ÊB/IKK inhibitor

>  <Weight>
10.3mg

$$$$
Lab-1.sdf
  ChemDraw05232018482D

 15 15  0  0  0  0  0  0  0  0999 V2000
   -0.7145    0.0000    0.0000 C   0  0  0  0  0  0  0  0  0  0  0  0
    0.0000    0.0000    0.0000 O   0  0  0  0  0  0  0  0  0  0  0  0
    0.0000    0.0000    0.0000 C   0  0  0  0  0  0  0  0  0  0  0  0
    0.7144    0.0000    0.0000 C   0  0  0  0  0  0  0  0  0  0  0  0
    0.7144    0.0000    0.0000 C   0  0  0  0  0  0  0  0  0  0  0  0
    0.0000    0.0000    0.0000 C   0  0  0  0  0  0  0  0  0  0  0  0
   -0.7145    0.0000    0.0000 C   0  0  0  0  0  0  0  0  0  0  0  0
   -1.4290    0.0000    0.0000 O   0  0  0  0  0  0  0  0  0  0  0  0
   -2.1434    0.0000    0.0000 C   0  0  0  0  0  0  0  0  0  0  0  0
   -0.7145    0.0000    0.0000 C   0  0  0  0  0  0  0  0  0  0  0  0
   -1.4290    0.0000    0.0000 O   0  0  0  0  0  0  0  0  0  0  0  0
   -1.4290    0.0000    0.0000 C   0  0  0  0  0  0  0  0  0  0  0  0
    1.4289    0.0000    0.0000 C   0  0  0  0  0  0  0  0  0  0  0  0
    2.1434    0.0000    0.0000 O   0  0  0  0  0  0  0  0  0  0  0  0
    1.4289    0.0000    0.0000 O   0  0  0  0  0  0  0  0  0  0  0  0
  1  2  1  0      
  2  3  1  0      
  3  4  2  0      
  4  5  1  0      
  5  6  2  0      
  6  7  1  0      
  7  8  1  0      
  8  9  1  0      
  7 10  2  0      
  3 10  1  0      
 10 11  1  0      
 11 12  1  0      
  5 13  1  0      
 13 14  1  0      
 13 15  2  0      
M  END
>  <Bioactivity>
Used as a medicine, organic synthesis intermediates

>  <CAS>
118-41-2

>  <Col>
2

>  <Formula>
C10H12O5

>  <ID>
T0632

>  <Index>
281

>  <MOLENAME>
Gallic acid trimethyl ether

>  <MolWt>
212.2

>  <Pathways>
Others

>  <Plate>
PLATE 004

>  <QR code>
1151476817

>  <Receptor>
Others

>  <Reference>
1. Doutheil J, Paschen W. Pharmacol Toxicol. 1999 Aug;85(2):85-91.

>  <Row>
E

>  <SMILES>
COC1=CC(=CC(OC)=C1OC)C(O)=O

>  <Target>
Intermediates

>  <Weight>
10.3mg

$$$$
Lab-1.sdf
  ChemDraw05232018482D

 12 13  0  0  0  0  0  0  0  0999 V2000
   -2.1189    0.0000    0.0000 O   0  0  0  0  0  0  0  0  0  0  0  0
   -1.2939    0.0000    0.0000 C   0  0  0  0  0  0  0  0  0  0  0  0
   -0.8091    0.0000    0.0000 N   0  0  0  0  0  0  0  0  0  0  0  0
   -0.0245    0.0000    0.0000 C   0  0  0  0  0  0  0  0  0  0  0  0
   -0.0245    0.0000    0.0000 C   0  0  0  0  0  0  0  0  0  0  0  0
   -0.8091    0.0000    0.0000 N   0  0  0  0  0  0  0  0  0  0  0  0
    0.6900    0.0000    0.0000 C   0  0  0  0  0  0  0  0  0  0  0  0
    0.6900    0.0000    0.0000 O   0  0  0  0  0  0  0  0  0  0  0  0
    1.4046    0.0000    0.0000 N   0  0  0  0  0  0  0  0  0  0  0  0
    1.4046    0.0000    0.0000 C   0  0  0  0  0  0  0  0  0  0  0  0
    2.1189    0.0000    0.0000 O   0  0  0  0  0  0  0  0  0  0  0  0
    0.6900    0.0000    0.0000 N   0  0  0  0  0  0  0  0  0  0  0  0
  1  2  2  0      
  2  3  1  0      
  3  4  1  0      
  4  5  2  0      
  5  6  1  0      
  2  6  1  0      
  5  7  1  0      
  7  8  2  0      
  7  9  1  0      
  9 10  1  0      
 10 11  2  0      
 10 12  1  0      
  4 12  1  0      
M  END
>  <Bioactivity>
An oxidation product, via XANTHINE OXIDASE, of oxypurines such as XANTHINE and HYPOXANTHINE. It is the final oxidation product of purine catabolism in humans and primates, whereas in most other mammal
s URATE OXIDASE further oxidizes it to ALLANTOIN.

>  <CAS>
69-93-2

>  <Col>
3

>  <Formula>
C5H4N4O3

>  <ID>
T0626

>  <Index>
282

>  <MOLENAME>
Uric Acid

>  <MolWt>
168.11

>  <Pathways>
Enzyme

>  <Plate>
PLATE 004

>  <QR code>
1151476816

>  <Receptor>
Glycogen phosphorylase

>  <Reference>
1. Livingston JR, et al. J Obstet Gynaecol Can. 2014 Oct;36(10):870-7.

>  <Row>
E

>  <SMILES>
O=C1NC2=C(N1)C(=O)NC(=O)N2

>  <Target>
Phosphorylase

>  <Weight>
10.1mg

$$$$
Lab-1.sdf
  ChemDraw05232018482D

 13 14  0  0  0  0  0  0  0  0999 V2000
   -1.4765    0.0000    0.0000 C   0  0  0  0  0  0  0  0  0  0  0  0
   -1.2216    0.0000    0.0000 N   0  0  0  0  0  0  0  0  0  0  0  0
   -1.7064    0.0000    0.0000 C   0  0  0  0  0  0  0  0  0  0  0  0
   -1.2216    0.0000    0.0000 N   0  0  0  0  0  0  0  0  0  0  0  0
   -0.4369    0.0000    0.0000 C   0  0  0  0  0  0  0  0  0  0  0  0
   -0.4369    0.0000    0.0000 C   0  0  0  0  0  0  0  0  0  0  0  0
    0.2775    0.0000    0.0000 C   0  0  0  0  0  0  0  0  0  0  0  0
    0.2775    0.0000    0.0000 O   0  0  0  0  0  0  0  0  0  0  0  0
    0.9920    0.0000    0.0000 N   0  0  0  0  0  0  0  0  0  0  0  0
    0.9920    0.0000    0.0000 C   0  0  0  0  0  0  0  0  0  0  0  0
    1.7064    0.0000    0.0000 O   0  0  0  0  0  0  0  0  0  0  0  0
    0.2775    0.0000    0.0000 N   0  0  0  0  0  0  0  0  0  0  0  0
    0.2775    0.0000    0.0000 C   0  0  0  0  0  0  0  0  0  0  0  0
  1  2  1  0      
  2  3  1  0      
  3  4  2  0      
  4  5  1  0      
  5  6  2  0      
  2  6  1  0      
  6  7  1  0      
  7  8  2  0      
  7  9  1  0      
  9 10  1  0      
 10 11  2  0      
 10 12  1  0      
  5 12  1  0      
 12 13  1  0      
M  END
>  <Bioactivity>
3,7-Dimethylxanthine. The principle alkaloid in Theobroma cacao (the cacao bean) and other plants. A xanthine alkaloid that is used as a bronchodilator and as a vasodilator. It has a weaker diuretic a
ctivity than THEOPHYLLINE and is also a less powerful stimulant of smooth muscle. It has practically no stimulant effect on the central nervous system. It was formerly used as a diuretic and in the tr
eatment of angina pectoris and hypertension. 

>  <CAS>
83-67-0

>  <Col>
4

>  <Formula>
C7H8N4O2

>  <ID>
T0625

>  <Index>
283

>  <MOLENAME>
Theobromine

>  <MolWt>
180.16

>  <Pathways>
Metabolism; GPCR/G Protein

>  <Plate>
PLATE 004

>  <QR code>
1151476815

>  <Receptor>
Adenosine receptor ; PDE

>  <Reference>
1. Chou CC, Vickroy TW. Am J Vet Res. 2003 Feb;64(2):216-24. 

>  <Row>
E

>  <SMILES>
CN1C=NC2=C1C(=O)NC(=O)N2C

>  <Target>
Adenosine receptor antagonist; PDE inhibitor

>  <Weight>
10.4mg

$$$$
Lab-1.sdf
  ChemDraw05232018482D

 22 24  0  0  0  0  0  0  0  0999 V2000
   -3.2151    0.0000    0.0000 C   0  0  0  0  0  0  0  0  0  0  0  0
   -3.2151    0.0000    0.0000 O   0  0  0  0  0  0  0  0  0  0  0  0
   -2.5006    0.0000    0.0000 C   0  0  0  0  0  0  0  0  0  0  0  0
   -2.5006    0.0000    0.0000 C   0  0  0  0  0  0  0  0  0  0  0  0
   -3.2151    0.0000    0.0000 O   0  0  0  0  0  0  0  0  0  0  0  0
   -1.7862    0.0000    0.0000 C   0  0  0  0  0  0  0  0  0  0  0  0
   -1.0717    0.0000    0.0000 C   0  0  0  0  0  0  0  0  0  0  0  0
   -1.0717    0.0000    0.0000 C   0  0  0  0  0  0  0  0  0  0  0  0
   -1.7862    0.0000    0.0000 C   0  0  0  0  0  0  0  0  0  0  0  0
   -0.3572    0.0000    0.0000 C   0  0  0  0  0  0  0  0  0  0  0  0
   -0.3572    0.0000    0.0000 C   0  0  0  0  0  0  0  0  0  0  0  0
    0.3572    0.0000    0.0000 C   0  0  0  0  0  0  0  0  0  0  0  0
    0.3572    0.0000    0.0000 O   0  0  0  0  0  0  0  0  0  0  0  0
    1.0717    0.0000    0.0000 C   0  0  0  0  0  0  0  0  0  0  0  0
    1.7862    0.0000    0.0000 C   0  0  0  0  0  0  0  0  0  0  0  0
    1.7862    0.0000    0.0000 O   0  0  0  0  0  0  0  0  0  0  0  0
    2.5007    0.0000    0.0000 C   0  0  0  0  0  0  0  0  0  0  0  0
    2.5007    0.0000    0.0000 C   0  0  0  0  0  0  0  0  0  0  0  0
    3.2151    0.0000    0.0000 O   0  0  0  0  0  0  0  0  0  0  0  0
    1.7862    0.0000    0.0000 C   0  0  0  0  0  0  0  0  0  0  0  0
    1.0717    0.0000    0.0000 C   0  0  0  0  0  0  0  0  0  0  0  0
    0.3572    0.0000    0.0000 O   0  0  0  0  0  0  0  0  0  0  0  0
  1  2  1  0      
  2  3  1  0      
  3  4  2  0      
  4  5  1  0      
  4  6  1  0      
  6  7  2  0      
  7  8  1  0      
  8  9  2  0      
  3  9  1  0      
  7 10  1  0      
 10 11  1  0      
 11 12  1  0      
 12 13  2  0      
 12 14  1  0      
 14 15  2  0      
 15 16  1  0      
 15 17  1  0      
 17 18  2  0      
 18 19  1  0      
 18 20  1  0      
 20 21  2  0      
 14 21  1  0      
 21 22  1  0      
 10 22  1  0      
M  END
>  <Bioactivity>
Hesperetin is a bioflavonoid and, to be more specific, a flavanone.

>  <CAS>
520-33-2

>  <Col>
5

>  <Formula>
C16H14O6

>  <ID>
T2565

>  <Index>
284

>  <MOLENAME>
Hesperetin

>  <MolWt>
302.27

>  <Pathways>
Immunology/Inflammation

>  <Plate>
PLATE 004

>  <QR code>
1151476814

>  <Receptor>
TGF-beta/Smad; Histamine Receptor

>  <Reference>
1. Palit S, et al. J Cell Physiol. 2015 Aug;230(8):1729-39. 

>  <Row>
E

>  <SMILES>
COC1=C(O)C=C(C=C1)C1CC(=O)C2=C(O)C=C(O)C=C2O1

>  <Target>
TGF-beta/Smad inhibitor; Histamine Receptor antagonist

>  <Weight>
10.2mg

$$$$
Lab-1.sdf
  ChemDraw05232018482D

 33 37  0  0  0  0  0  0  0  0999 V2000
   -3.7125    0.0000    0.0000 C   0  0  0  0  0  0  0  0  0  0  0  0
   -3.3000    0.0000    0.0000 C   0  0  0  0  0  0  0  0  0  0  0  0
   -3.7125    0.0000    0.0000 C   0  0  0  0  0  0  0  0  0  0  0  0
   -3.3000    0.0000    0.0000 C   0  0  0  0  0  0  0  0  0  0  0  0
   -2.4750    0.0000    0.0000 C   0  0  0  0  0  0  0  0  0  0  0  0
   -2.0625    0.0000    0.0000 C   0  0  0  0  0  0  0  0  0  0  0  0
   -1.2375    0.0000    0.0000 C   0  0  0  0  0  0  0  0  0  0  0  0
   -0.8250    0.0000    0.0000 C   0  0  0  0  0  0  0  0  0  0  0  0
   -0.4125    0.0000    0.0000 C   0  0  0  0  0  0  0  0  0  0  0  0
   -1.2375    0.0000    0.0000 C   0  0  0  0  0  0  0  0  0  0  0  0
   -0.8250    0.0000    0.0000 C   0  0  0  0  0  0  0  0  0  0  0  0
   -0.0000    0.0000    0.0000 C   0  0  0  0  0  0  0  0  0  0  0  0
    0.4125    0.0000    0.0000 C   0  0  0  0  0  0  0  0  0  0  0  0
    1.2375    0.0000    0.0000 C   0  0  0  0  0  0  0  0  0  0  0  0
    0.8250    0.0000    0.0000 C   0  0  0  0  0  0  0  0  0  0  0  0
    1.6500    0.0000    0.0000 C   0  0  0  0  0  0  0  0  0  0  0  0
    2.4750    0.0000    0.0000 C   0  0  0  0  0  0  0  0  0  0  0  0
    2.8875    0.0000    0.0000 C   0  0  0  0  0  0  0  0  0  0  0  0
    3.7125    0.0000    0.0000 O   0  0  0  0  0  0  0  0  0  0  0  0
    2.4750    0.0000    0.0000 C   0  0  0  0  0  0  0  0  0  0  0  0
    3.2502    0.0000    0.0000 C   0  0  0  0  0  0  0  0  0  0  0  0
    2.3317    0.0000    0.0000 C   0  0  0  0  0  0  0  0  0  0  0  0
    1.6500    0.0000    0.0000 C   0  0  0  0  0  0  0  0  0  0  0  0
    1.2375    0.0000    0.0000 C   0  0  0  0  0  0  0  0  0  0  0  0
    0.4125    0.0000    0.0000 C   0  0  0  0  0  0  0  0  0  0  0  0
   -0.0000    0.0000    0.0000 C   0  0  0  0  0  0  0  0  0  0  0  0
    0.0862    0.0000    0.0000 C   0  0  0  0  0  0  0  0  0  0  0  0
   -2.0625    0.0000    0.0000 C   0  0  0  0  0  0  0  0  0  0  0  0
   -2.4750    0.0000    0.0000 C   0  0  0  0  0  0  0  0  0  0  0  0
   -2.0625    0.0000    0.0000 C   0  0  0  0  0  0  0  0  0  0  0  0
   -2.8875    0.0000    0.0000 C   0  0  0  0  0  0  0  0  0  0  0  0
   -2.4750    0.0000    0.0000 O   0  0  0  0  0  0  0  0  0  0  0  0
   -3.7125    0.0000    0.0000 O   0  0  0  0  0  0  0  0  0  0  0  0
  1  2  1  0      
  2  3  1  0      
  3  4  1  0      
  4  5  1  0      
  5  6  1  0      
  6  7  1  0      
  7  8  1  0      
  8  9  1  0      
  8 10  1  0      
 10 11  2  0      
 11 12  1  0      
 12 13  1  0      
 13 14  1  0      
 14 15  1  0      
 14 16  1  0      
 16 17  1  0      
 17 18  1  0      
 18 19  1  0      
 18 20  1  0      
 20 21  1  0      
 20 22  1  0      
 20 23  1  0      
 14 23  1  0      
 23 24  1  0      
 24 25  1  0      
 25 26  1  0      
  8 26  1  0      
 13 26  1  0      
 26 27  1  0      
 10 28  1  0      
  5 28  1  0      
 28 29  1  0      
  2 29  1  0      
 29 30  1  0      
  5 31  1  0      
 31 32  1  0      
 31 33  2  0      
M  END
>  <Bioactivity>
Ursolic acid(Bungeolic acid) is a natural pentacyclic triterpenoid carboxylic acid, exerts anti-tumor effects and is an effective compound for Y prevention and therapy.

>  <CAS>
77-52-1

>  <Col>
6

>  <Formula>
C30H48O3

>  <ID>
T0722

>  <Index>
285

>  <MOLENAME>
Ursolic acid

>  <MolWt>
456.7

>  <Pathways>
Others

>  <Plate>
PLATE 004

>  <QR code>
1151476813

>  <Receptor>
Others

>  <Reference>
1. Kim M, et al. Int J Mol Med. 2015 Mar;35(3):755-62.

>  <Row>
E

>  <SMILES>
CC1CCC2(CCC3(C)C(=CCC4C5(C)CCC(O)C(C)(C)C5CCC34C)C2C1C)C(O)=O

>  <Target>
Others

>  <Weight>
9.8mg

$$$$
Lab-1.sdf
  ChemDraw05232018482D

 21 23  0  0  0  0  0  0  0  0999 V2000
   -3.2151    0.0000    0.0000 O   0  0  0  0  0  0  0  0  0  0  0  0
   -2.5006    0.0000    0.0000 C   0  0  0  0  0  0  0  0  0  0  0  0
   -2.5006    0.0000    0.0000 C   0  0  0  0  0  0  0  0  0  0  0  0
   -1.7862    0.0000    0.0000 C   0  0  0  0  0  0  0  0  0  0  0  0
   -1.7862    0.0000    0.0000 O   0  0  0  0  0  0  0  0  0  0  0  0
   -1.0717    0.0000    0.0000 C   0  0  0  0  0  0  0  0  0  0  0  0
   -0.3572    0.0000    0.0000 C   0  0  0  0  0  0  0  0  0  0  0  0
   -0.3572    0.0000    0.0000 O   0  0  0  0  0  0  0  0  0  0  0  0
    0.3573    0.0000    0.0000 C   0  0  0  0  0  0  0  0  0  0  0  0
    0.3573    0.0000    0.0000 C   0  0  0  0  0  0  0  0  0  0  0  0
   -0.3572    0.0000    0.0000 O   0  0  0  0  0  0  0  0  0  0  0  0
   -1.0717    0.0000    0.0000 C   0  0  0  0  0  0  0  0  0  0  0  0
   -1.7862    0.0000    0.0000 C   0  0  0  0  0  0  0  0  0  0  0  0
    1.0717    0.0000    0.0000 C   0  0  0  0  0  0  0  0  0  0  0  0
    1.7862    0.0000    0.0000 C   0  0  0  0  0  0  0  0  0  0  0  0
    2.5007    0.0000    0.0000 C   0  0  0  0  0  0  0  0  0  0  0  0
    3.2151    0.0000    0.0000 O   0  0  0  0  0  0  0  0  0  0  0  0
    2.5007    0.0000    0.0000 C   0  0  0  0  0  0  0  0  0  0  0  0
    3.2151    0.0000    0.0000 O   0  0  0  0  0  0  0  0  0  0  0  0
    1.7862    0.0000    0.0000 C   0  0  0  0  0  0  0  0  0  0  0  0
    1.0717    0.0000    0.0000 C   0  0  0  0  0  0  0  0  0  0  0  0
  1  2  1  0      
  2  3  2  0      
  3  4  1  0      
  4  5  1  0      
  4  6  2  0      
  6  7  1  0      
  7  8  2  0      
  7  9  1  0      
  9 10  2  0      
 10 11  1  0      
 11 12  1  0      
  6 12  1  0      
 12 13  2  0      
  2 13  1  0      
 10 14  1  0      
 14 15  2  0      
 15 16  1  0      
 16 17  1  0      
 16 18  2  0      
 18 19  1  0      
 18 20  1  0      
 20 21  2  0      
 14 21  1  0      
M  END
>  <Bioactivity>
Luteolin is a falconoid compound, which exhibits antiY properties.

>  <CAS>
491-70-3

>  <Col>
7

>  <Formula>
C15H10O6

>  <ID>
T1027

>  <Index>
286

>  <MOLENAME>
Luteolin

>  <MolWt>
286.24

>  <Pathways>
Immunology/Inflammation

>  <Plate>
PLATE 004

>  <QR code>
1151476812

>  <Receptor>
TNF-¦Á; IL-6; NF-¦ÊB; AP-1

>  <Reference>
1. Yu MC, et al. Eur J Pharmacol, 2010, 627(1-3), 269-275.

>  <Row>
E

>  <SMILES>
OC1=CC(O)=C2C(=O)C=C(OC2=C1)C1=CC(O)=C(O)C=C1

>  <Target>
TNF-alpha inhibitor; IL inhibitor; NF-¦ÊB inhibitor

>  <Weight>
9.9mg

$$$$
Lab-1.sdf
  ChemDraw05232018482D

 20 22  0  0  0  0  0  0  0  0999 V2000
   -3.5722    0.0000    0.0000 C   0  0  0  0  0  0  0  0  0  0  0  0
   -2.8579    0.0000    0.0000 O   0  0  0  0  0  0  0  0  0  0  0  0
   -2.1434    0.0000    0.0000 C   0  0  0  0  0  0  0  0  0  0  0  0
   -1.4289    0.0000    0.0000 C   0  0  0  0  0  0  0  0  0  0  0  0
   -0.7144    0.0000    0.0000 C   0  0  0  0  0  0  0  0  0  0  0  0
   -0.7144    0.0000    0.0000 C   0  0  0  0  0  0  0  0  0  0  0  0
   -1.4289    0.0000    0.0000 C   0  0  0  0  0  0  0  0  0  0  0  0
   -2.1434    0.0000    0.0000 C   0  0  0  0  0  0  0  0  0  0  0  0
   -0.0001    0.0000    0.0000 C   0  0  0  0  0  0  0  0  0  0  0  0
   -0.0001    0.0000    0.0000 C   0  0  0  0  0  0  0  0  0  0  0  0
    0.7144    0.0000    0.0000 O   0  0  0  0  0  0  0  0  0  0  0  0
    1.4289    0.0000    0.0000 C   0  0  0  0  0  0  0  0  0  0  0  0
    1.4289    0.0000    0.0000 C   0  0  0  0  0  0  0  0  0  0  0  0
    2.1433    0.0000    0.0000 C   0  0  0  0  0  0  0  0  0  0  0  0
    2.8578    0.0000    0.0000 C   0  0  0  0  0  0  0  0  0  0  0  0
    2.8578    0.0000    0.0000 C   0  0  0  0  0  0  0  0  0  0  0  0
    3.5722    0.0000    0.0000 O   0  0  0  0  0  0  0  0  0  0  0  0
    2.1433    0.0000    0.0000 C   0  0  0  0  0  0  0  0  0  0  0  0
    0.7144    0.0000    0.0000 C   0  0  0  0  0  0  0  0  0  0  0  0
    0.7144    0.0000    0.0000 O   0  0  0  0  0  0  0  0  0  0  0  0
  1  2  1  0      
  2  3  1  0      
  3  4  2  0      
  4  5  1  0      
  5  6  2  0      
  6  7  1  0      
  7  8  2  0      
  3  8  1  0      
  6  9  1  0      
  9 10  2  0      
 10 11  1  0      
 11 12  1  0      
 12 13  2  0      
 13 14  1  0      
 14 15  2  0      
 15 16  1  0      
 16 17  1  0      
 16 18  2  0      
 12 18  1  0      
 13 19  1  0      
  9 19  1  0      
 19 20  2  0      
M  END
>  <Bioactivity>
Formononetin is a phytoestrogen from the root of Astragalus membranaceus and an O-methylated isoflavone.

>  <CAS>
485-72-3

>  <Col>
8

>  <Formula>
C16H12O4

>  <ID>
T0724

>  <Index>
287

>  <MOLENAME>
Formononetin

>  <MolWt>
268.27

>  <Pathways>
Others

>  <Plate>
PLATE 004

>  <QR code>
1151476811

>  <Receptor>
Others

>  <Reference>
1. Liu XJ, et al. Asian Pac J Y Prev. 2014;15(6):2835-9.

>  <Row>
E

>  <SMILES>
COC1=CC=C(C=C1)C1=COC2=C(C=CC(O)=C2)C1=O

>  <Target>
Others

>  <Weight>
10.2mg

$$$$
Lab-1.sdf
  ChemDraw05232018482D

 19 20  0  0  0  0  0  0  0  0999 V2000
    1.4289    0.0000    0.0000 O   0  0  0  0  0  0  0  0  0  0  0  0
    1.4289    0.0000    0.0000 C   0  0  0  0  0  0  0  0  0  0  0  0
    2.1434    0.0000    0.0000 C   0  0  0  0  0  0  0  0  0  0  0  0
    2.1434    0.0000    0.0000 C   0  0  0  0  0  0  0  0  0  0  0  0
    1.4289    0.0000    0.0000 C   0  0  0  0  0  0  0  0  0  0  0  0
    1.4289    0.0000    0.0000 C   0  0  0  0  0  0  0  0  0  0  0  0
    0.7144    0.0000    0.0000 C   0  0  0  0  0  0  0  0  0  0  0  0
    0.7144    0.0000    0.0000 C   0  0  0  0  0  0  0  0  0  0  0  0
    1.4289    0.0000    0.0000 O   0  0  0  0  0  0  0  0  0  0  0  0
   -0.0001    0.0000    0.0000 C   0  0  0  0  0  0  0  0  0  0  0  0
   -0.0001    0.0000    0.0000 C   0  0  0  0  0  0  0  0  0  0  0  0
    0.7144    0.0000    0.0000 O   0  0  0  0  0  0  0  0  0  0  0  0
   -0.7144    0.0000    0.0000 C   0  0  0  0  0  0  0  0  0  0  0  0
   -1.4289    0.0000    0.0000 C   0  0  0  0  0  0  0  0  0  0  0  0
   -2.1434    0.0000    0.0000 O   0  0  0  0  0  0  0  0  0  0  0  0
   -1.4289    0.0000    0.0000 C   0  0  0  0  0  0  0  0  0  0  0  0
   -0.7144    0.0000    0.0000 C   0  0  0  0  0  0  0  0  0  0  0  0
    0.7144    0.0000    0.0000 C   0  0  0  0  0  0  0  0  0  0  0  0
    0.7144    0.0000    0.0000 C   0  0  0  0  0  0  0  0  0  0  0  0
  1  2  1  0      
  2  3  2  0      
  3  4  1  0      
  4  5  2  0      
  6  5  1  4      
  6  7  2  0      
  7  8  1  0      
  8  9  2  0      
  8 10  1  0      
 10 11  2  0      
 11 12  1  0      
 11 13  1  0      
 13 14  2  0      
 14 15  1  0      
 14 16  1  0      
 16 17  2  0      
 10 17  1  0      
  5 18  1  0      
 18 19  2  0      
  2 19  1  0      
M  END
>  <Bioactivity>
Isoliquiritigenin, an anti-tumor flavonoid from the root of Glycyrrhiza glabra, inhibits aldose reductase with an IC50 of 320 nM.

>  <CAS>
961-29-5

>  <Col>
9

>  <Formula>
C15H12O4

>  <ID>
T0725

>  <Index>
288

>  <MOLENAME>
Isoliquiritigenin

>  <MolWt>
256.25

>  <Pathways>
Enzyme

>  <Plate>
PLATE 004

>  <QR code>
1151476810

>  <Receptor>
Aldose reductase

>  <Reference>
1. Aida K, et al. Planta Med, 1990, 56(3), 254-258.

>  <Row>
E

>  <SMILES>
OC1=CC=C(C=CC(=O)C2=C(O)C=C(O)C=C2)C=C1

>  <Target>
Aldose reductase inhibitor

>  <Weight>
10.2mg

$$$$
Lab-1.sdf
  ChemDraw05232018482D

 16 18  0  0  0  0  0  0  0  0999 V2000
   -1.1514    0.0000    0.0000 C   0  0  0  0  0  0  0  0  0  0  0  0
   -0.4369    0.0000    0.0000 O   0  0  0  0  0  0  0  0  0  0  0  0
   -0.4369    0.0000    0.0000 C   0  0  0  0  0  0  0  0  0  0  0  0
    0.2775    0.0000    0.0000 C   0  0  0  0  0  0  0  0  0  0  0  0
    0.9919    0.0000    0.0000 C   0  0  0  0  0  0  0  0  0  0  0  0
    1.7064    0.0000    0.0000 C   0  0  0  0  0  0  0  0  0  0  0  0
    1.7064    0.0000    0.0000 C   0  0  0  0  0  0  0  0  0  0  0  0
    2.4209    0.0000    0.0000 O   0  0  0  0  0  0  0  0  0  0  0  0
    0.9919    0.0000    0.0000 O   0  0  0  0  0  0  0  0  0  0  0  0
    0.2775    0.0000    0.0000 C   0  0  0  0  0  0  0  0  0  0  0  0
   -0.4369    0.0000    0.0000 C   0  0  0  0  0  0  0  0  0  0  0  0
   -1.1514    0.0000    0.0000 C   0  0  0  0  0  0  0  0  0  0  0  0
   -1.1514    0.0000    0.0000 C   0  0  0  0  0  0  0  0  0  0  0  0
   -1.9360    0.0000    0.0000 C   0  0  0  0  0  0  0  0  0  0  0  0
   -2.4209    0.0000    0.0000 C   0  0  0  0  0  0  0  0  0  0  0  0
   -1.9360    0.0000    0.0000 O   0  0  0  0  0  0  0  0  0  0  0  0
  1  2  1  0      
  2  3  1  0      
  3  4  2  0      
  4  5  1  0      
  5  6  2  0      
  6  7  1  0      
  7  8  2  0      
  7  9  1  0      
  9 10  1  0      
  4 10  1  0      
 10 11  2  0      
 11 12  1  0      
 12 13  2  0      
  3 13  1  0      
 13 14  1  0      
 14 15  2  0      
 15 16  1  0      
 12 16  1  0      
M  END
>  <Bioactivity>
5-Methoxypsoralen, a naturally occurring linear furocoumarin, has been successfully used in combination with ultraviolet (UV) A irradiation [psoralen plus UV (PUVA)] to manage psoriasis and vitiligo; 
inhibit proliferation in the human hepatocellular carcinoma cell line.

>  <CAS>
484-20-8

>  <Col>
10

>  <Formula>
C12H8O4

>  <ID>
T2143

>  <Index>
289

>  <MOLENAME>
Bergapten

>  <MolWt>
216.19

>  <Pathways>
DNA Damage/DNA Repair

>  <Plate>
PLATE 004

>  <QR code>
1151476809

>  <Receptor>
CYP450

>  <Reference>
1. Panno ML, et al. Breast Y Res Treat, 2012, 136(2), 443-455.

>  <Row>
E

>  <SMILES>
COC1=C2C=CC(=O)OC2=CC2=C1C=CO2

>  <Target>
CYP inhibitor

>  <Weight>
9.9mg

$$$$
Lab-1.sdf
  ChemDraw05232018482D

 28 31  0  0  0  0  0  0  0  0999 V2000
   -1.4673    0.0000    0.0000 C   0  0  0  0  0  0  0  0  0  0  0  0
   -1.7782    0.0000    0.0000 C   0  0  0  0  0  0  0  0  0  0  0  0
   -2.5955    0.0000    0.0000 C   0  0  0  0  0  0  0  0  0  0  0  0
   -3.1019    0.0000    0.0000 C   0  0  0  0  0  0  0  0  0  0  0  0
   -3.9191    0.0000    0.0000 C   0  0  0  0  0  0  0  0  0  0  0  0
   -4.4255    0.0000    0.0000 O   0  0  0  0  0  0  0  0  0  0  0  0
   -4.2300    0.0000    0.0000 O   0  0  0  0  0  0  0  0  0  0  0  0
   -1.2718    0.0000    0.0000 C   0  0  0  0  0  0  0  0  0  0  0  0
   -1.5011    0.0000    0.0000 C   0  0  0  0  0  0  0  0  0  0  0  0
   -0.8183    0.0000    0.0000 C   0  0  0  0  0  0  0  0  0  0  0  0
   -0.1670    0.0000    0.0000 C   0  0  0  0  0  0  0  0  0  0  0  0
    0.6452    0.0000    0.0000 C   0  0  0  0  0  0  0  0  0  0  0  0
    0.9254    0.0000    0.0000 C   0  0  0  0  0  0  0  0  0  0  0  0
    0.3936    0.0000    0.0000 O   0  0  0  0  0  0  0  0  0  0  0  0
    1.7376    0.0000    0.0000 C   0  0  0  0  0  0  0  0  0  0  0  0
    2.2695    0.0000    0.0000 C   0  0  0  0  0  0  0  0  0  0  0  0
    3.0816    0.0000    0.0000 C   0  0  0  0  0  0  0  0  0  0  0  0
    3.6134    0.0000    0.0000 C   0  0  0  0  0  0  0  0  0  0  0  0
    4.4255    0.0000    0.0000 O   0  0  0  0  0  0  0  0  0  0  0  0
    3.3331    0.0000    0.0000 C   0  0  0  0  0  0  0  0  0  0  0  0
    2.5210    0.0000    0.0000 C   0  0  0  0  0  0  0  0  0  0  0  0
    1.9891    0.0000    0.0000 C   0  0  0  0  0  0  0  0  0  0  0  0
    1.7088    0.0000    0.0000 C   0  0  0  0  0  0  0  0  0  0  0  0
    1.1770    0.0000    0.0000 C   0  0  0  0  0  0  0  0  0  0  0  0
    0.8967    0.0000    0.0000 C   0  0  0  0  0  0  0  0  0  0  0  0
    0.0846    0.0000    0.0000 C   0  0  0  0  0  0  0  0  0  0  0  0
   -0.4473    0.0000    0.0000 C   0  0  0  0  0  0  0  0  0  0  0  0
   -0.8071    0.0000    0.0000 C   0  0  0  0  0  0  0  0  0  0  0  0
  1  2  1  0      
  2  3  1  0      
  3  4  1  0      
  4  5  1  0      
  5  6  1  0      
  5  7  2  0      
  2  8  1  0      
  8  9  1  0      
  9 10  1  0      
 10 11  1  0      
 11 12  1  0      
 12 13  1  0      
 13 14  1  0      
 13 15  1  0      
 15 16  1  0      
 16 17  1  0      
 17 18  1  0      
 18 19  1  0      
 18 20  1  0      
 20 21  1  0      
 21 22  1  0      
 16 22  1  0      
 22 23  1  0      
 22 24  1  0      
 12 24  1  0      
 24 25  1  0      
 25 26  1  0      
 26 27  1  0      
  8 27  1  0      
 11 27  1  0      
 27 28  1  0      
M  END
>  <Bioactivity>
Ursodiol reduces cholesterol absorption and is used to dissolve gallstones.

>  <CAS>
128-13-2

>  <Col>
11

>  <Formula>
C24H40O4

>  <ID>
T0700

>  <Index>
290

>  <MOLENAME>
Ursodeoxycholic acid

>  <MolWt>
392.57

>  <Pathways>
Metabolism

>  <Plate>
PLATE 004

>  <QR code>
1151476808

>  <Receptor>
Bile salt export pump

>  <Reference>
1. Schuetz EG, et al. J Biol Chem. 2001 Oct 19;276(42):39411-8. 

>  <Row>
E

>  <SMILES>
CC(CCC(O)=O)C1CCC2C3C(O)CC4CC(O)CCC4(C)C3CCC12C

>  <Target>
Biliation inhibitor

>  <Weight>
10.3mg

$$$$
Lab-1.sdf
  ChemDraw05232018482D

 30 32  0  0  0  0  0  0  0  0999 V2000
   -2.4454    0.0000    0.0000 C   0  0  0  0  0  0  0  0  0  0  0  0
   -1.7309    0.0000    0.0000 C   0  0  0  0  0  0  0  0  0  0  0  0
   -1.7309    0.0000    0.0000 C   0  0  0  0  0  0  0  0  0  0  0  0
   -0.9059    0.0000    0.0000 C   0  0  0  0  0  0  0  0  0  0  0  0
   -2.5559    0.0000    0.0000 C   0  0  0  0  0  0  0  0  0  0  0  0
   -1.7309    0.0000    0.0000 C   0  0  0  0  0  0  0  0  0  0  0  0
   -2.4454    0.0000    0.0000 O   0  0  0  0  0  0  0  0  0  0  0  0
   -1.0165    0.0000    0.0000 O   0  0  0  0  0  0  0  0  0  0  0  0
   -1.0165    0.0000    0.0000 C   0  0  0  0  0  0  0  0  0  0  0  0
   -1.7309    0.0000    0.0000 C   0  0  0  0  0  0  0  0  0  0  0  0
   -1.7309    0.0000    0.0000 C   0  0  0  0  0  0  0  0  0  0  0  0
   -2.4454    0.0000    0.0000 C   0  0  0  0  0  0  0  0  0  0  0  0
   -1.0165    0.0000    0.0000 C   0  0  0  0  0  0  0  0  0  0  0  0
   -0.3020    0.0000    0.0000 C   0  0  0  0  0  0  0  0  0  0  0  0
    0.4125    0.0000    0.0000 C   0  0  0  0  0  0  0  0  0  0  0  0
    1.1270    0.0000    0.0000 C   0  0  0  0  0  0  0  0  0  0  0  0
    1.1270    0.0000    0.0000 C   0  0  0  0  0  0  0  0  0  0  0  0
    1.8414    0.0000    0.0000 C   0  0  0  0  0  0  0  0  0  0  0  0
    0.4125    0.0000    0.0000 C   0  0  0  0  0  0  0  0  0  0  0  0
    0.4125    0.0000    0.0000 C   0  0  0  0  0  0  0  0  0  0  0  0
    1.1270    0.0000    0.0000 C   0  0  0  0  0  0  0  0  0  0  0  0
    1.1270    0.0000    0.0000 C   0  0  0  0  0  0  0  0  0  0  0  0
    0.4125    0.0000    0.0000 C   0  0  0  0  0  0  0  0  0  0  0  0
    0.4125    0.0000    0.0000 C   0  0  0  0  0  0  0  0  0  0  0  0
   -0.3020    0.0000    0.0000 O   0  0  0  0  0  0  0  0  0  0  0  0
    1.1270    0.0000    0.0000 C   0  0  0  0  0  0  0  0  0  0  0  0
    1.8414    0.0000    0.0000 C   0  0  0  0  0  0  0  0  0  0  0  0
    2.5559    0.0000    0.0000 O   0  0  0  0  0  0  0  0  0  0  0  0
    1.8414    0.0000    0.0000 O   0  0  0  0  0  0  0  0  0  0  0  0
   -0.3020    0.0000    0.0000 C   0  0  0  0  0  0  0  0  0  0  0  0
  1  2  1  0      
  2  3  1  0      
  3  4  1  0      
  3  5  1  0      
  3  6  1  0      
  6  7  2  0      
  6  8  1  0      
  8  9  1  0      
  9 10  1  0      
 10 11  1  0      
 11 12  1  0      
 11 13  1  0      
 13 14  2  0      
 14 15  1  0      
 15 16  2  0      
 16 17  1  0      
 17 18  1  0      
 17 19  1  0      
 19 20  1  0      
 20 21  1  0      
 21 22  1  0      
 22 23  1  0      
 23 24  1  0      
 24 25  1  0      
 24 26  1  0      
 26 27  1  0      
 27 28  2  0      
 27 29  1  0      
 22 29  1  0      
 19 30  1  0      
  9 30  1  0      
 14 30  1  0      
M  END
>  <Bioactivity>
Simvastatin is an HMGCR (HMG-CoA reductase) inhibitor with anti-proliferative properties. This compound has been shown to modulate purified bovine pituitary 20 S proteasome via mild stimulation of chy
motrypsin-like activity and inhibition of peptidylglutamylpeptide hydrolyzing activity. 

>  <CAS>
79902-63-9

>  <Col>
2

>  <Formula>
C25H38O5

>  <ID>
T0687

>  <Index>
291

>  <MOLENAME>
Simvastatin

>  <MolWt>
418.57

>  <Pathways>
Metabolism

>  <Plate>
PLATE 004

>  <QR code>
1151476796

>  <Receptor>
MRP1; HMG-CoA Reductase ; Integrin beta-2

>  <Reference>
1. Slater EE, et al. Drugs. 1988, 36 Suppl 3, 72-82.

>  <Row>
F

>  <SMILES>
CCC(C)(C)C(=O)OC1CC(C)C=C2C=CC(C)C(CCC3CC(O)CC(=O)O3)C12

>  <Target>
MRP inhibitor; HMG-CoA Reductase inhibitor; Integrin

>  <Weight>
10.2mg

$$$$
Lab-1.sdf
  ChemDraw05232018482D

 24 27  0  0  0  0  0  0  0  0999 V2000
   -3.2151    0.0000    0.0000 C   0  0  0  0  0  0  0  0  0  0  0  0
   -2.5007    0.0000    0.0000 O   0  0  0  0  0  0  0  0  0  0  0  0
   -1.7862    0.0000    0.0000 C   0  0  0  0  0  0  0  0  0  0  0  0
   -1.0717    0.0000    0.0000 C   0  0  0  0  0  0  0  0  0  0  0  0
   -0.3572    0.0000    0.0000 C   0  0  0  0  0  0  0  0  0  0  0  0
    0.3572    0.0000    0.0000 C   0  0  0  0  0  0  0  0  0  0  0  0
    1.0717    0.0000    0.0000 C   0  0  0  0  0  0  0  0  0  0  0  0
    1.0717    0.0000    0.0000 C   0  0  0  0  0  0  0  0  0  0  0  0
    0.3572    0.0000    0.0000 N   0  0  0  0  0  0  0  0  0  0  0  0
   -0.3572    0.0000    0.0000 C   0  0  0  0  0  0  0  0  0  0  0  0
   -1.0717    0.0000    0.0000 C   0  0  0  0  0  0  0  0  0  0  0  0
   -1.7862    0.0000    0.0000 C   0  0  0  0  0  0  0  0  0  0  0  0
    0.3572    0.0000    0.0000 C   0  0  0  0  0  0  0  0  0  0  0  0
   -0.3572    0.0000    0.0000 O   0  0  0  0  0  0  0  0  0  0  0  0
    1.0717    0.0000    0.0000 C   0  0  0  0  0  0  0  0  0  0  0  0
    1.0717    0.0000    0.0000 C   0  0  0  0  0  0  0  0  0  0  0  0
    1.7862    0.0000    0.0000 C   0  0  0  0  0  0  0  0  0  0  0  0
    1.9237    0.0000    0.0000 C   0  0  0  0  0  0  0  0  0  0  0  0
    1.9237    0.0000    0.0000 C   0  0  0  0  0  0  0  0  0  0  0  0
    1.7862    0.0000    0.0000 N   0  0  0  0  0  0  0  0  0  0  0  0
    2.5006    0.0000    0.0000 C   0  0  0  0  0  0  0  0  0  0  0  0
    2.5006    0.0000    0.0000 C   0  0  0  0  0  0  0  0  0  0  0  0
    3.2151    0.0000    0.0000 C   0  0  0  0  0  0  0  0  0  0  0  0
    3.2151    0.0000    0.0000 C   0  0  0  0  0  0  0  0  0  0  0  0
  1  2  1  0      
  2  3  1  0      
  3  4  2  0      
  4  5  1  0      
  5  6  2  0      
  6  7  1  0      
  7  8  2  0      
  8  9  1  0      
  9 10  2  0      
  5 10  1  0      
 10 11  1  0      
 11 12  2  0      
  3 12  1  0      
  6 13  1  0      
 13 14  1  0      
 13 15  1  0      
 15 16  1  0      
 16 17  1  0      
 17 18  1  0      
 18 19  1  0      
 19 20  1  0      
 15 20  1  0      
 20 21  1  0      
 21 22  1  0      
 17 22  1  0      
 22 23  1  0      
 23 24  2  0      
M  END
>  <Bioactivity>
An alkaloid derived from the bark of the cinchona tree. It is used as an antimalarial drug, and is the active ingredient in extracts of the cinchona that have been used for that purpose since before 1
633. Quinine is also a mild antipyretic and analgesic and has been used in common cold preparations for that purpose. It was used commonly and as a bitter and flavoring agent, and is still useful for 
the treatment of babesiosis. Quinine is also useful in some muscular disorders, especially nocturnal leg cramps and myotonia congenita, because of its direct effects on muscle membrane and sodium chan
nels. The mechanisms of its antimalarial effects are not well understood.  

>  <CAS>
130-95-0

>  <Col>
3

>  <Formula>
C20H24N2O2

>  <ID>
T0690

>  <Index>
292

>  <MOLENAME>
Quinine

>  <MolWt>
324.42

>  <Pathways>
Others

>  <Plate>
PLATE 004

>  <QR code>
1151476797

>  <Receptor>
Fe(II)-protoporphyrin IX; Platelet glycoprotein IX; Potassium Channel

>  <Reference>
1. Alumasa JN, et al. J Inorg Biochem. 2010 Sep 21.

>  <Row>
F

>  <SMILES>
COC1=CC2=C(C=CN=C2C=C1)C(O)C1CC2CCN1CC2C=C

>  <Target>
Fe(II)-protoporphyrin IX; Platelet glycoprotein IX; Potassium Channel inhibitor

>  <Weight>
10.3mg

$$$$
Lab-1.sdf
  ChemDraw05232018482D

 28 30  0  0  0  0  0  0  0  0999 V2000
   -2.8578    0.0000    0.0000 C   0  0  0  0  0  0  0  0  0  0  0  0
   -2.1433    0.0000    0.0000 C   0  0  0  0  0  0  0  0  0  0  0  0
   -1.4290    0.0000    0.0000 C   0  0  0  0  0  0  0  0  0  0  0  0
   -1.4290    0.0000    0.0000 C   0  0  0  0  0  0  0  0  0  0  0  0
   -0.7145    0.0000    0.0000 C   0  0  0  0  0  0  0  0  0  0  0  0
   -0.7145    0.0000    0.0000 O   0  0  0  0  0  0  0  0  0  0  0  0
   -0.0000    0.0000    0.0000 O   0  0  0  0  0  0  0  0  0  0  0  0
    0.7144    0.0000    0.0000 C   0  0  0  0  0  0  0  0  0  0  0  0
    0.7144    0.0000    0.0000 C   0  0  0  0  0  0  0  0  0  0  0  0
    1.4289    0.0000    0.0000 C   0  0  0  0  0  0  0  0  0  0  0  0
    2.1433    0.0000    0.0000 C   0  0  0  0  0  0  0  0  0  0  0  0
    2.1433    0.0000    0.0000 C   0  0  0  0  0  0  0  0  0  0  0  0
    2.8578    0.0000    0.0000 C   0  0  0  0  0  0  0  0  0  0  0  0
    2.8578    0.0000    0.0000 C   0  0  0  0  0  0  0  0  0  0  0  0
    2.1433    0.0000    0.0000 C   0  0  0  0  0  0  0  0  0  0  0  0
    2.1433    0.0000    0.0000 C   0  0  0  0  0  0  0  0  0  0  0  0
    1.4289    0.0000    0.0000 C   0  0  0  0  0  0  0  0  0  0  0  0
    0.7144    0.0000    0.0000 C   0  0  0  0  0  0  0  0  0  0  0  0
    0.7144    0.0000    0.0000 C   0  0  0  0  0  0  0  0  0  0  0  0
   -0.0000    0.0000    0.0000 C   0  0  0  0  0  0  0  0  0  0  0  0
   -0.7145    0.0000    0.0000 C   0  0  0  0  0  0  0  0  0  0  0  0
   -1.4290    0.0000    0.0000 C   0  0  0  0  0  0  0  0  0  0  0  0
   -2.1433    0.0000    0.0000 O   0  0  0  0  0  0  0  0  0  0  0  0
   -1.4290    0.0000    0.0000 C   0  0  0  0  0  0  0  0  0  0  0  0
   -0.7145    0.0000    0.0000 C   0  0  0  0  0  0  0  0  0  0  0  0
   -0.7145    0.0000    0.0000 O   0  0  0  0  0  0  0  0  0  0  0  0
   -0.0000    0.0000    0.0000 O   0  0  0  0  0  0  0  0  0  0  0  0
    1.4289    0.0000    0.0000 C   0  0  0  0  0  0  0  0  0  0  0  0
  1  2  1  0      
  2  3  1  0      
  3  4  1  0      
  3  5  1  0      
  5  6  2  0      
  5  7  1  0      
  7  8  1  0      
  8  9  1  0      
  9 10  1  0      
 10 11  1  0      
 11 12  2  0      
 12 13  1  0      
 13 14  2  0      
 14 15  1  0      
 15 16  1  0      
 15 17  1  0      
 17 18  1  0      
 18 19  1  0      
 19 20  1  0      
 20 21  1  0      
 21 22  1  0      
 22 23  1  0      
 22 24  1  0      
 24 25  1  0      
 25 26  2  0      
 25 27  1  0      
 20 27  1  0      
 17 28  1  0      
  8 28  1  0      
 12 28  1  0      
M  END
>  <Bioactivity>
Mevastatin or compactin is a cholesterol-lowering agent isolated from Penicillium citinium. It was the first discovered agent belonging to the class of cholesterol-lowering medications known as statin
s. During a search for antibiotic compounds produced by fungi in 1971, Akira Endo at Sankyo Co. (Japan) discovered a class of compounds that appeared to lower plasma cholesterol levels. Two years late
r, the research group isolated a compound structurally similar to hydroxymethylglutarate (HMG) that inhibited the incorporation of acetate. The compound was proposed to bind to the reductase enzyme an
d was named compactin. Mevastatin is a competitive inhibitor of HMG-Coenzyme A (HMG-CoA) reductase with a binding affinity 10,000 times greater than the HMG-CoA substrate itself. Mevastatin is a pro-d
rug that is activated by in vivo hydrolysis of the lactone ring. It has served as one of the lead compounds for the development of the synthetic compounds used today.

>  <CAS>
73573-88-3

>  <Col>
4

>  <Formula>
C23H34O5

>  <ID>
T0683

>  <Index>
293

>  <MOLENAME>
Mevastatin

>  <MolWt>
390.51

>  <Pathways>
Metabolism

>  <Plate>
PLATE 004

>  <QR code>
1151476798

>  <Receptor>
HMG-CoA Reductase ; CES 1

>  <Reference>
1. Endo A, et al. J Antibiot (Tokyo), 1976, 29(12), 1346-1348.

>  <Row>
F

>  <SMILES>
CCC(C)C(=O)OC1CCC=C2C=CC(C)C(CCC3CC(O)CC(=O)O3)C12

>  <Target>
HMG-CoA Reductase inhibitor; CES inhibitor

>  <Weight>
10.2mg

$$$$
Lab-1.sdf
  ChemDraw05232018482D

 11 12  0  0  0  0  0  0  0  0999 V2000
   -1.7861    0.0000    0.0000 O   0  0  0  0  0  0  0  0  0  0  0  0
   -1.0717    0.0000    0.0000 C   0  0  0  0  0  0  0  0  0  0  0  0
   -0.3573    0.0000    0.0000 O   0  0  0  0  0  0  0  0  0  0  0  0
    0.3572    0.0000    0.0000 C   0  0  0  0  0  0  0  0  0  0  0  0
    1.0717    0.0000    0.0000 C   0  0  0  0  0  0  0  0  0  0  0  0
    1.7861    0.0000    0.0000 C   0  0  0  0  0  0  0  0  0  0  0  0
    1.7861    0.0000    0.0000 C   0  0  0  0  0  0  0  0  0  0  0  0
    1.0717    0.0000    0.0000 C   0  0  0  0  0  0  0  0  0  0  0  0
    0.3572    0.0000    0.0000 C   0  0  0  0  0  0  0  0  0  0  0  0
   -0.3573    0.0000    0.0000 C   0  0  0  0  0  0  0  0  0  0  0  0
   -1.0717    0.0000    0.0000 C   0  0  0  0  0  0  0  0  0  0  0  0
  1  2  2  0      
  2  3  1  0      
  3  4  1  0      
  4  5  2  0      
  5  6  1  0      
  6  7  2  0      
  7  8  1  0      
  8  9  2  0      
  4  9  1  0      
  9 10  1  0      
 10 11  2  0      
  2 11  1  0      
M  END
>  <Bioactivity>
Extracted from Tonka bean,incense Liatris; Suitability:Alcohol,ether,chloroform,pyridine,volatile oil and alkali hydroxide solution;Store the product in sealed,cool and dry condition

>  <CAS>
91-64-5

>  <Col>
5

>  <Formula>
C9H6O2

>  <ID>
T0775

>  <Index>
294

>  <MOLENAME>
Coumarin

>  <MolWt>
146.14

>  <Pathways>
Metabolism; Vitamin

>  <Plate>
PLATE 004

>  <QR code>
1151476799

>  <Receptor>
Factor Xa ; VK

>  <Reference>
1. Egan D, et al. Drug Metab Rev, 1990, 22(5), 503-529.

>  <Row>
F

>  <SMILES>
O=C1OC2=CC=CC=C2C=C1

>  <Target>
Factor Xa inhibitor; VK antagonist

>  <Weight>
10mg

$$$$
Lab-1.sdf
  ChemDraw05232018482D

 25 25  0  0  0  0  0  0  0  0999 V2000
    1.0717    0.0000    0.0000 C   0  0  0  0  0  0  0  0  0  0  0  0
    1.0717    0.0000    0.0000 C   0  0  0  0  0  0  0  0  0  0  0  0
    1.7861    0.0000    0.0000 C   0  0  0  0  0  0  0  0  0  0  0  0
    2.5006    0.0000    0.0000 C   0  0  0  0  0  0  0  0  0  0  0  0
    3.2151    0.0000    0.0000 C   0  0  0  0  0  0  0  0  0  0  0  0
    3.9295    0.0000    0.0000 C   0  0  0  0  0  0  0  0  0  0  0  0
    4.6439    0.0000    0.0000 O   0  0  0  0  0  0  0  0  0  0  0  0
    3.5170    0.0000    0.0000 O   0  0  0  0  0  0  0  0  0  0  0  0
    4.3420    0.0000    0.0000 O   0  0  0  0  0  0  0  0  0  0  0  0
    0.3572    0.0000    0.0000 C   0  0  0  0  0  0  0  0  0  0  0  0
   -0.3572    0.0000    0.0000 C   0  0  0  0  0  0  0  0  0  0  0  0
   -1.0716    0.0000    0.0000 C   0  0  0  0  0  0  0  0  0  0  0  0
   -1.7861    0.0000    0.0000 C   0  0  0  0  0  0  0  0  0  0  0  0
   -1.7861    0.0000    0.0000 C   0  0  0  0  0  0  0  0  0  0  0  0
   -2.5006    0.0000    0.0000 C   0  0  0  0  0  0  0  0  0  0  0  0
   -2.5006    0.0000    0.0000 C   0  0  0  0  0  0  0  0  0  0  0  0
   -3.2151    0.0000    0.0000 C   0  0  0  0  0  0  0  0  0  0  0  0
   -3.2151    0.0000    0.0000 C   0  0  0  0  0  0  0  0  0  0  0  0
   -2.5006    0.0000    0.0000 C   0  0  0  0  0  0  0  0  0  0  0  0
   -3.9294    0.0000    0.0000 C   0  0  0  0  0  0  0  0  0  0  0  0
   -4.6439    0.0000    0.0000 C   0  0  0  0  0  0  0  0  0  0  0  0
   -4.6439    0.0000    0.0000 C   0  0  0  0  0  0  0  0  0  0  0  0
   -3.9294    0.0000    0.0000 C   0  0  0  0  0  0  0  0  0  0  0  0
   -4.3167    0.0000    0.0000 C   0  0  0  0  0  0  0  0  0  0  0  0
   -3.5421    0.0000    0.0000 C   0  0  0  0  0  0  0  0  0  0  0  0
  1  2  1  0      
  2  3  2  0      
  3  4  1  4      
  4  5  1  0      
  5  6  1  0      
  6  7  1  0      
  6  8  1  0      
  6  9  1  0      
 10  2  1  4      
 10 11  2  0      
 12 11  1  4      
 12 13  2  0      
 13 14  1  0      
 15 13  1  4      
 15 16  2  0      
 16 17  1  0      
 17 18  2  0      
 18 19  1  0      
 18 20  1  0      
 20 21  1  0      
 21 22  1  0      
 22 23  1  0      
 17 23  1  0      
 23 24  1  0      
 23 25  1  0      
M  END
>  <Bioactivity>
Troxerutin, a natural bioflavonoid isolated from Sophora japonica., has been reported to have many benefits and medicinal properties.

>  <CAS>
7085-55-4

>  <Col>
6

>  <Formula>
C33H42O19

>  <ID>
T0772

>  <Index>
295

>  <MOLENAME>
Troxerutin

>  <MolWt>
742.67

>  <Pathways>
Others

>  <Plate>
PLATE 004

>  <QR code>
1151476800

>  <Receptor>
Others

>  <Reference>
1. Lu J, et al. Brain. 2011 Mar;134(Pt 3):783-97. 

>  <Row>
F

>  <SMILES>
CC(=CCCC(O)(O)O)C=CC=C(C)C=CC1=C(C)CCCC1(C)C

>  <Target>
Others

>  <Weight>
10.3mg

$$$$
Lab-1.sdf
  ChemDraw05232018482D

 31 34  0  0  0  0  0  0  0  0999 V2000
   -3.5723    0.0000    0.0000 O   0  0  0  0  0  0  0  0  0  0  0  0
   -2.8579    0.0000    0.0000 C   0  0  0  0  0  0  0  0  0  0  0  0
   -2.1435    0.0000    0.0000 C   0  0  0  0  0  0  0  0  0  0  0  0
   -1.4289    0.0000    0.0000 O   0  0  0  0  0  0  0  0  0  0  0  0
   -0.7146    0.0000    0.0000 C   0  0  0  0  0  0  0  0  0  0  0  0
   -0.0001    0.0000    0.0000 O   0  0  0  0  0  0  0  0  0  0  0  0
   -0.0001    0.0000    0.0000 C   0  0  0  0  0  0  0  0  0  0  0  0
    0.7144    0.0000    0.0000 C   0  0  0  0  0  0  0  0  0  0  0  0
    1.4289    0.0000    0.0000 C   0  0  0  0  0  0  0  0  0  0  0  0
    2.1433    0.0000    0.0000 C   0  0  0  0  0  0  0  0  0  0  0  0
    2.8578    0.0000    0.0000 C   0  0  0  0  0  0  0  0  0  0  0  0
    3.5723    0.0000    0.0000 O   0  0  0  0  0  0  0  0  0  0  0  0
    2.1433    0.0000    0.0000 C   0  0  0  0  0  0  0  0  0  0  0  0
    1.4289    0.0000    0.0000 C   0  0  0  0  0  0  0  0  0  0  0  0
    1.4289    0.0000    0.0000 O   0  0  0  0  0  0  0  0  0  0  0  0
    0.7144    0.0000    0.0000 C   0  0  0  0  0  0  0  0  0  0  0  0
   -0.0001    0.0000    0.0000 C   0  0  0  0  0  0  0  0  0  0  0  0
   -0.0001    0.0000    0.0000 O   0  0  0  0  0  0  0  0  0  0  0  0
   -0.7146    0.0000    0.0000 C   0  0  0  0  0  0  0  0  0  0  0  0
   -0.7146    0.0000    0.0000 C   0  0  0  0  0  0  0  0  0  0  0  0
   -1.4289    0.0000    0.0000 C   0  0  0  0  0  0  0  0  0  0  0  0
   -2.1435    0.0000    0.0000 C   0  0  0  0  0  0  0  0  0  0  0  0
   -2.1435    0.0000    0.0000 C   0  0  0  0  0  0  0  0  0  0  0  0
   -1.4289    0.0000    0.0000 C   0  0  0  0  0  0  0  0  0  0  0  0
   -1.4289    0.0000    0.0000 O   0  0  0  0  0  0  0  0  0  0  0  0
   -0.7146    0.0000    0.0000 C   0  0  0  0  0  0  0  0  0  0  0  0
   -0.0001    0.0000    0.0000 O   0  0  0  0  0  0  0  0  0  0  0  0
   -1.4289    0.0000    0.0000 C   0  0  0  0  0  0  0  0  0  0  0  0
   -1.4289    0.0000    0.0000 O   0  0  0  0  0  0  0  0  0  0  0  0
   -2.1435    0.0000    0.0000 C   0  0  0  0  0  0  0  0  0  0  0  0
   -2.8579    0.0000    0.0000 O   0  0  0  0  0  0  0  0  0  0  0  0
  1  2  1  0      
  2  3  1  0      
  3  4  1  0      
  4  5  1  0      
  5  6  1  0      
  6  7  1  0      
  7  8  1  0      
  8  9  2  0      
  9 10  1  0      
 10 11  1  0      
 11 12  1  0      
 10 13  2  0      
 13 14  1  0      
 14 15  1  0      
 14 16  2  0      
  8 16  1  0      
 16 17  1  0      
 17 18  2  0      
 17 19  1  0      
 19 20  2  0      
  7 20  1  0      
 20 21  1  0      
 21 22  2  0      
 22 23  1  0      
 23 24  2  0      
 19 24  1  0      
 24 25  1  0      
  5 26  1  0      
 26 27  1  0      
 26 28  1  0      
 28 29  1  0      
 28 30  1  0      
  3 30  1  0      
 30 31  1  0      
M  END
>  <Bioactivity>
Dried aged bark of a buckthorn, Frangula purshiana (FRANGULA), that contains the anthraquinone EMODIN and cascarosides. It is used as a laxative (CATHARTICS).

>  <CAS>
8024-48-4

>  <Col>
7

>  <Formula>
C21H22O10

>  <ID>
T0771

>  <Index>
296

>  <MOLENAME>
Casanthranol

>  <MolWt>
396.58

>  <Pathways>
Others

>  <Plate>
PLATE 004

>  <QR code>
1151476801

>  <Receptor>
Others

>  <Reference>
1. Borrelli F, et al. Life Sci. 2001 Sep 7;69(16):1871-7.

>  <Row>
F

>  <SMILES>
OCC1OC(OC2C3=CC(CO)=CC(O)=C3C(=O)C3=C2C=CC=C3O)C(O)C(O)C1O

>  <Target>
Others

>  <Weight>
10.2mg

$$$$
Lab-1.sdf
  ChemDraw05232018482D

 28 31  0  0  0  0  0  0  0  0999 V2000
   -4.9410    0.0000    0.0000 C   0  0  0  0  0  0  0  0  0  0  0  0
   -4.2266    0.0000    0.0000 C   0  0  0  0  0  0  0  0  0  0  0  0
   -4.2266    0.0000    0.0000 C   0  0  0  0  0  0  0  0  0  0  0  0
   -3.5122    0.0000    0.0000 C   0  0  0  0  0  0  0  0  0  0  0  0
   -2.7977    0.0000    0.0000 C   0  0  0  0  0  0  0  0  0  0  0  0
   -2.0833    0.0000    0.0000 C   0  0  0  0  0  0  0  0  0  0  0  0
   -1.3688    0.0000    0.0000 C   0  0  0  0  0  0  0  0  0  0  0  0
   -1.3688    0.0000    0.0000 C   0  0  0  0  0  0  0  0  0  0  0  0
   -0.6543    0.0000    0.0000 C   0  0  0  0  0  0  0  0  0  0  0  0
   -0.5681    0.0000    0.0000 C   0  0  0  0  0  0  0  0  0  0  0  0
    0.2388    0.0000    0.0000 C   0  0  0  0  0  0  0  0  0  0  0  0
    0.6513    0.0000    0.0000 C   0  0  0  0  0  0  0  0  0  0  0  0
    1.4583    0.0000    0.0000 C   0  0  0  0  0  0  0  0  0  0  0  0
    2.0103    0.0000    0.0000 C   0  0  0  0  0  0  0  0  0  0  0  0
    2.8173    0.0000    0.0000 C   0  0  0  0  0  0  0  0  0  0  0  0
    3.0722    0.0000    0.0000 C   0  0  0  0  0  0  0  0  0  0  0  0
    3.8791    0.0000    0.0000 C   0  0  0  0  0  0  0  0  0  0  0  0
    4.1340    0.0000    0.0000 C   0  0  0  0  0  0  0  0  0  0  0  0
    4.9410    0.0000    0.0000 O   0  0  0  0  0  0  0  0  0  0  0  0
    3.5821    0.0000    0.0000 C   0  0  0  0  0  0  0  0  0  0  0  0
    2.7751    0.0000    0.0000 C   0  0  0  0  0  0  0  0  0  0  0  0
    2.5202    0.0000    0.0000 C   0  0  0  0  0  0  0  0  0  0  0  0
    1.9681    0.0000    0.0000 C   0  0  0  0  0  0  0  0  0  0  0  0
    1.7132    0.0000    0.0000 C   0  0  0  0  0  0  0  0  0  0  0  0
    1.1612    0.0000    0.0000 C   0  0  0  0  0  0  0  0  0  0  0  0
    0.3542    0.0000    0.0000 C   0  0  0  0  0  0  0  0  0  0  0  0
    0.0993    0.0000    0.0000 C   0  0  0  0  0  0  0  0  0  0  0  0
   -0.5137    0.0000    0.0000 C   0  0  0  0  0  0  0  0  0  0  0  0
  1  2  1  0      
  2  3  1  0      
  2  4  1  0      
  4  5  1  0      
  5  6  1  0      
  6  7  1  0      
  7  8  1  0      
  7  9  1  0      
  9 10  1  0      
 10 11  1  0      
 11 12  1  0      
 12 13  1  0      
 13 14  1  0      
 14 15  1  0      
 15 16  2  0      
 16 17  1  0      
 17 18  1  0      
 18 19  1  0      
 18 20  1  0      
 20 21  1  0      
 21 22  1  0      
 16 22  1  0      
 22 23  1  0      
 22 24  1  0      
 13 24  1  0      
 24 25  1  0      
 25 26  1  0      
 26 27  1  0      
  9 27  1  0      
 12 27  1  0      
 27 28  1  0      
M  END
>  <Bioactivity>
Cholesterol is the major sterol in mammals, and its importance in fundamental cellular processes is becoming more appreciated.

>  <CAS>
57-88-5

>  <Col>
8

>  <Formula>
C27H46O

>  <ID>
T0760

>  <Index>
297

>  <MOLENAME>
Cholesterol

>  <MolWt>
386.65

>  <Pathways>
Immunology/Inflammation

>  <Plate>
PLATE 004

>  <QR code>
1151476802

>  <Receptor>
MRP1; ROR-alpha

>  <Reference>
1. Wu Y, et al. Biochem Biophys Res Commun. 2015 Feb 20;457(4):614-20. 

>  <Row>
F

>  <SMILES>
CC(C)CCCC(C)C1CCC2C3CC=C4CC(O)CCC4(C)C3CCC12C

>  <Target>
MRP inhibitor

>  <Weight>
10.1mg

$$$$
Lab-1.sdf
  ChemDraw05232018482D

 11 11  0  0  0  0  0  0  0  0999 V2000
   -0.7145    0.0000    0.0000 O   0  0  0  0  0  0  0  0  0  0  0  0
    0.0000    0.0000    0.0000 C   0  0  0  0  0  0  0  0  0  0  0  0
    0.7145    0.0000    0.0000 O   0  0  0  0  0  0  0  0  0  0  0  0
    0.0000    0.0000    0.0000 C   0  0  0  0  0  0  0  0  0  0  0  0
    0.7145    0.0000    0.0000 C   0  0  0  0  0  0  0  0  0  0  0  0
    0.7145    0.0000    0.0000 C   0  0  0  0  0  0  0  0  0  0  0  0
    1.4289    0.0000    0.0000 O   0  0  0  0  0  0  0  0  0  0  0  0
    0.0000    0.0000    0.0000 N   0  0  0  0  0  0  0  0  0  0  0  0
   -0.7145    0.0000    0.0000 C   0  0  0  0  0  0  0  0  0  0  0  0
   -1.4289    0.0000    0.0000 O   0  0  0  0  0  0  0  0  0  0  0  0
   -0.7145    0.0000    0.0000 N   0  0  0  0  0  0  0  0  0  0  0  0
  1  2  1  0      
  2  3  2  0      
  2  4  1  0      
  4  5  2  0      
  5  6  1  0      
  6  7  2  0      
  6  8  1  0      
  8  9  1  0      
  9 10  2  0      
  9 11  1  0      
  4 11  1  0      
M  END
>  <Bioactivity>
Orotic acid (OA) is an intermediate in pyrimidine metabolism. Orotic acid(6-Carboxyuracil) is a heterocyclic compound and an acid.

>  <CAS>
65-86-1

>  <Col>
9

>  <Formula>
C5H4N2O4

>  <ID>
T0746

>  <Index>
298

>  <MOLENAME>
Orotic acid

>  <MolWt>
156.1

>  <Pathways>
DNA Damage/DNA Repair

>  <Plate>
PLATE 004

>  <QR code>
1151476803

>  <Receptor>
DHOase

>  <Reference>
1. Takeuchi K, et al. J Toxicol Sci. 2015;40(2):181-91. 

>  <Row>
F

>  <SMILES>
OC(=O)C1=CC(=O)NC(=O)N1

>  <Target>
DHOase inhibitor

>  <Weight>
10mg

$$$$
Lab-1.sdf
  ChemDraw05232018482D

 11 10  0  0  0  0  0  0  0  0999 V2000
   -0.3572    0.0000    0.0000 C   0  0  0  0  0  0  0  0  0  0  0  0
    0.0552    0.0000    0.0000 N   0  3  0  0  0  0  0  0  0  0  0  0
   -0.6592    0.0000    0.0000 C   0  0  0  0  0  0  0  0  0  0  0  0
    0.7697    0.0000    0.0000 C   0  0  0  0  0  0  0  0  0  0  0  0
    0.4677    0.0000    0.0000 C   0  0  0  0  0  0  0  0  0  0  0  0
    0.0552    0.0000    0.0000 C   0  0  0  0  0  0  0  0  0  0  0  0
   -0.7697    0.0000    0.0000 O   0  0  0  0  0  0  0  0  0  0  0  0
    0.4677    0.0000    0.0000 C   0  0  0  0  0  0  0  0  0  0  0  0
    0.0552    0.0000    0.0000 C   0  0  0  0  0  0  0  0  0  0  0  0
    0.4677    0.0000    0.0000 O   0  5  0  0  0  0  0  0  0  0  0  0
   -0.7697    0.0000    0.0000 O   0  0  0  0  0  0  0  0  0  0  0  0
  1  2  1  0      
  2  3  1  0      
  2  4  1  0      
  2  5  1  0      
  5  6  1  0      
  6  7  1  0      
  6  8  1  0      
  8  9  1  0      
  9 10  1  0      
  9 11  2  0      
M  CHG  2   2   1  10  -1
M  END
>  <Bioactivity>
Constituent of striated muscle and liver. It is used therapeutically to stimulate gastric and pancreatic secretions and in the treatment of hyperlipoproteinemias.

>  <CAS>
461-06-3

>  <Col>
10

>  <Formula>
C7H15NO3

>  <ID>
T0743

>  <Index>
299

>  <MOLENAME>
DL-Carnitine

>  <MolWt>
161.2

>  <Pathways>
Others

>  <Plate>
PLATE 004

>  <QR code>
1151476804

>  <Receptor>
O-acetyltransferase

>  <Reference>
1. Lopes G, et al. Braz J Med Biol Res. 2003 Sep;36(9):1255-62.

>  <Row>
F

>  <SMILES>
C[N+](C)(C)CC(O)CC([O-])=O

>  <Target>
Others

>  <Weight>
10.3mg

$$$$
Lab-1.sdf
  ChemDraw05232018482D

 24 25  0  0  0  0  0  0  0  0999 V2000
   -3.9295    0.0000    0.0000 C   0  0  0  0  0  0  0  0  0  0  0  0
   -3.2150    0.0000    0.0000 C   0  0  0  0  0  0  0  0  0  0  0  0
   -2.5006    0.0000    0.0000 N   0  0  0  0  0  0  0  0  0  0  0  0
   -1.7861    0.0000    0.0000 C   0  0  0  0  0  0  0  0  0  0  0  0
   -1.7861    0.0000    0.0000 C   0  0  0  0  0  0  0  0  0  0  0  0
   -1.0717    0.0000    0.0000 C   0  0  0  0  0  0  0  0  0  0  0  0
   -0.3573    0.0000    0.0000 S   0  0  0  0  0  0  0  0  0  0  0  0
    0.3572    0.0000    0.0000 S   0  0  0  0  0  0  0  0  0  0  0  0
    1.0717    0.0000    0.0000 C   0  0  0  0  0  0  0  0  0  0  0  0
    1.7861    0.0000    0.0000 C   0  0  0  0  0  0  0  0  0  0  0  0
    2.5005    0.0000    0.0000 C   0  0  0  0  0  0  0  0  0  0  0  0
    3.2150    0.0000    0.0000 N   0  0  0  0  0  0  0  0  0  0  0  0
    3.2150    0.0000    0.0000 C   0  0  0  0  0  0  0  0  0  0  0  0
    3.9295    0.0000    0.0000 C   0  0  0  0  0  0  0  0  0  0  0  0
    2.5005    0.0000    0.0000 C   0  0  0  0  0  0  0  0  0  0  0  0
    2.5005    0.0000    0.0000 O   0  0  0  0  0  0  0  0  0  0  0  0
    1.7861    0.0000    0.0000 C   0  0  0  0  0  0  0  0  0  0  0  0
    1.0717    0.0000    0.0000 C   0  0  0  0  0  0  0  0  0  0  0  0
    0.3572    0.0000    0.0000 O   0  0  0  0  0  0  0  0  0  0  0  0
   -2.5006    0.0000    0.0000 C   0  0  0  0  0  0  0  0  0  0  0  0
   -2.5006    0.0000    0.0000 C   0  0  0  0  0  0  0  0  0  0  0  0
   -3.2150    0.0000    0.0000 O   0  0  0  0  0  0  0  0  0  0  0  0
   -3.2150    0.0000    0.0000 C   0  0  0  0  0  0  0  0  0  0  0  0
   -3.9295    0.0000    0.0000 O   0  0  0  0  0  0  0  0  0  0  0  0
  1  2  1  0      
  2  3  2  0      
  3  4  1  0      
  4  5  2  0      
  5  6  1  0      
  6  7  1  0      
  7  8  1  0      
  8  9  1  0      
  9 10  1  0      
 10 11  2  0      
 11 12  1  0      
 12 13  2  0      
 13 14  1  0      
 13 15  1  0      
 15 16  1  0      
 15 17  2  0      
 10 17  1  0      
 17 18  1  0      
 18 19  1  0      
  5 20  1  0      
 20 21  1  0      
 21 22  1  0      
 20 23  2  0      
  2 23  1  0      
 23 24  1  0      
M  END
>  <Bioactivity>
Pyrithioxin is a neurodynamic compound, combined with a short period of hyperventilation (HV) was applied in cerebral infarct patients with Hemiplegia.

>  <CAS>
1098-97-1

>  <Col>
11

>  <Formula>
C16H20N2O4S2

>  <ID>
T0905

>  <Index>
300

>  <MOLENAME>
Pyrithioxin

>  <MolWt>
368.47

>  <Pathways>
Vitamin

>  <Plate>
PLATE 004

>  <QR code>
1151476805

>  <Receptor>
VB6

>  <Reference>
1. Hindmarch I, et al. Neuropsychobiology. 1990-1991;24(3):159-64.

>  <Row>
F

>  <SMILES>
CC1=NC=C(CSSCC2=CN=C(C)C(O)=C2CO)C(CO)=C1O

>  <Target>
VB

>  <Weight>
10.1mg

$$$$
Lab-1.sdf
  ChemDraw05232018482D

  9  8  0  0  0  0  0  0  0  0999 V2000
   -2.1434    0.0000    0.0000 N   0  0  0  0  0  0  0  0  0  0  0  0
   -1.4289    0.0000    0.0000 C   0  0  0  0  0  0  0  0  0  0  0  0
   -0.7144    0.0000    0.0000 C   0  0  0  0  0  0  0  0  0  0  0  0
   -0.0001    0.0000    0.0000 C   0  0  0  0  0  0  0  0  0  0  0  0
    0.7144    0.0000    0.0000 C   0  0  0  0  0  0  0  0  0  0  0  0
    0.7144    0.0000    0.0000 N   0  0  0  0  0  0  0  0  0  0  0  0
    1.4289    0.0000    0.0000 C   0  0  0  0  0  0  0  0  0  0  0  0
    2.1434    0.0000    0.0000 O   0  0  0  0  0  0  0  0  0  0  0  0
    1.4289    0.0000    0.0000 O   0  0  0  0  0  0  0  0  0  0  0  0
  1  2  1  0      
  2  3  1  0      
  3  4  1  0      
  4  5  1  0      
  5  6  1  0      
  5  7  1  0      
  7  8  1  0      
  7  9  2  0      
M  END
>  <Bioactivity>
L-ornithine has an antifatigue effect in increasing the efficiency of energy consumption and promoting the excretion of ammonia.

>  <CAS>
70-26-8

>  <Col>
2

>  <Formula>
C5H12N2O2

>  <ID>
T0737

>  <Index>
301

>  <MOLENAME>
L-Ornithine

>  <MolWt>
132.16

>  <Pathways>
Amino Acids & Building Blocks

>  <Plate>
PLATE 004

>  <QR code>
1151476793

>  <Receptor>
Ornithine aminotransferase;  Ornithine carbamoyltransferase;  Arginase-1;  Ornithine decarboxylase antizyme 1; Arginase-2

>  <Reference>
1. Kristiansen RG, et al. Am J Physiol Gastrointest Liver Physiol. 2014 Nov 15;307(10):G1024-31. 

>  <Row>
G

>  <SMILES>
NCCCC(N)C(O)=O

>  <Target>
Amino Acids and Derivatives

>  <Weight>
10.2mg

$$$$
Lab-1.sdf
  ChemDraw05232018482D

  4  3  0  0  0  0  0  0  0  0999 V2000
    0.6187    0.0000    0.0000 N   0  0  0  0  0  0  0  0  0  0  0  0
    0.2062    0.0000    0.0000 C   0  0  0  0  0  0  0  0  0  0  0  0
    0.6187    0.0000    0.0000 N   0  0  0  0  0  0  0  0  0  0  0  0
   -0.6187    0.0000    0.0000 O   0  0  0  0  0  0  0  0  0  0  0  0
  1  2  1  0      
  2  3  1  0      
  2  4  2  0      
M  END
>  <Bioactivity>
A compound formed in the liver from ammonia produced by the deamination of amino acids. It is the principal end product of protein catabolism and constitutes about one half of the total urinary solids
.

>  <CAS>
57-13-6

>  <Col>
3

>  <Formula>
CH4N2O

>  <ID>
T0738

>  <Index>
302

>  <MOLENAME>
Urea

>  <MolWt>
60.06

>  <Pathways>
Enzyme

>  <Plate>
PLATE 004

>  <QR code>
1151476792

>  <Receptor>
Arginase-1;  CA 2; Catenin beta-1;  Sulfoxide reductase catalytic subunit YedY; DHFR

>  <Reference>
1. Shen S, et al. Environ Sci Pollut Res Int. 2014 Nov;21(21):12563-8.

>  <Row>
G

>  <SMILES>
NC(N)=O

>  <Target>
Carbonic anhydrase; beta Catenin

>  <Weight>
10.2mg

$$$$
Lab-1.sdf
  ChemDraw05232018482D

 12 12  0  0  0  0  0  0  0  0999 V2000
   -0.7145    0.0000    0.0000 O   0  0  0  0  0  0  0  0  0  0  0  0
    0.0000    0.0000    0.0000 C   0  0  0  0  0  0  0  0  0  0  0  0
    0.7145    0.0000    0.0000 O   0  0  0  0  0  0  0  0  0  0  0  0
    0.0000    0.0000    0.0000 C   0  0  0  0  0  0  0  0  0  0  0  0
    0.7145    0.0000    0.0000 C   0  0  0  0  0  0  0  0  0  0  0  0
    0.7145    0.0000    0.0000 C   0  0  0  0  0  0  0  0  0  0  0  0
    1.4289    0.0000    0.0000 O   0  0  0  0  0  0  0  0  0  0  0  0
    0.0000    0.0000    0.0000 C   0  0  0  0  0  0  0  0  0  0  0  0
    0.0000    0.0000    0.0000 O   0  0  0  0  0  0  0  0  0  0  0  0
   -0.7145    0.0000    0.0000 C   0  0  0  0  0  0  0  0  0  0  0  0
   -1.4289    0.0000    0.0000 O   0  0  0  0  0  0  0  0  0  0  0  0
   -0.7145    0.0000    0.0000 C   0  0  0  0  0  0  0  0  0  0  0  0
  1  2  1  0      
  2  3  2  0      
  2  4  1  0      
  4  5  2  0      
  5  6  1  0      
  6  7  1  0      
  6  8  2  0      
  8  9  1  0      
  8 10  1  0      
 10 11  1  0      
 10 12  2  0      
  4 12  1  0      
M  END
>  <Bioactivity>
Gallic acid is found in almost all plants. Plants known for their high gallic acid content include gallnuts,grapes,tea,hops and oak bark.

>  <CAS>
149-91-7

>  <Col>
4

>  <Formula>
C7H6O5

>  <ID>
T0877

>  <Index>
303

>  <MOLENAME>
Gallic acid

>  <MolWt>
170.12

>  <Pathways>
Others

>  <Plate>
PLATE 004

>  <QR code>
1151476791

>  <Receptor>
Others

>  <Reference>
1. Liu Y, et al. Bioorg Med Chem Lett. 2013 Dec 1;23(23):6336-40. 

>  <Row>
G

>  <SMILES>
OC(=O)C1=CC(O)=C(O)C(O)=C1

>  <Target>
Others

>  <Weight>
10.1mg

$$$$
Lab-1.sdf
  ChemDraw05232018482D

 43 47  0  0  0  0  0  0  0  0999 V2000
   -5.7157    0.0000    0.0000 C   0  0  0  0  0  0  0  0  0  0  0  0
   -5.7157    0.0000    0.0000 O   0  0  0  0  0  0  0  0  0  0  0  0
   -5.0012    0.0000    0.0000 C   0  0  0  0  0  0  0  0  0  0  0  0
   -5.0012    0.0000    0.0000 C   0  0  0  0  0  0  0  0  0  0  0  0
   -5.7157    0.0000    0.0000 O   0  0  0  0  0  0  0  0  0  0  0  0
   -4.2868    0.0000    0.0000 C   0  0  0  0  0  0  0  0  0  0  0  0
   -3.5723    0.0000    0.0000 C   0  0  0  0  0  0  0  0  0  0  0  0
   -3.5723    0.0000    0.0000 C   0  0  0  0  0  0  0  0  0  0  0  0
   -4.2868    0.0000    0.0000 C   0  0  0  0  0  0  0  0  0  0  0  0
   -2.8579    0.0000    0.0000 C   0  0  0  0  0  0  0  0  0  0  0  0
   -2.8579    0.0000    0.0000 C   0  0  0  0  0  0  0  0  0  0  0  0
   -2.1434    0.0000    0.0000 C   0  0  0  0  0  0  0  0  0  0  0  0
   -2.1434    0.0000    0.0000 O   0  0  0  0  0  0  0  0  0  0  0  0
   -1.4290    0.0000    0.0000 C   0  0  0  0  0  0  0  0  0  0  0  0
   -0.7145    0.0000    0.0000 C   0  0  0  0  0  0  0  0  0  0  0  0
   -0.7145    0.0000    0.0000 O   0  0  0  0  0  0  0  0  0  0  0  0
    0.0000    0.0000    0.0000 C   0  0  0  0  0  0  0  0  0  0  0  0
    0.0000    0.0000    0.0000 C   0  0  0  0  0  0  0  0  0  0  0  0
    0.7145    0.0000    0.0000 O   0  0  0  0  0  0  0  0  0  0  0  0
    0.7145    0.0000    0.0000 C   0  0  0  0  0  0  0  0  0  0  0  0
    1.4289    0.0000    0.0000 O   0  0  0  0  0  0  0  0  0  0  0  0
    1.4289    0.0000    0.0000 C   0  0  0  0  0  0  0  0  0  0  0  0
    2.1434    0.0000    0.0000 C   0  0  0  0  0  0  0  0  0  0  0  0
    2.8578    0.0000    0.0000 O   0  0  0  0  0  0  0  0  0  0  0  0
    3.5723    0.0000    0.0000 C   0  0  0  0  0  0  0  0  0  0  0  0
    4.2868    0.0000    0.0000 O   0  0  0  0  0  0  0  0  0  0  0  0
    5.0013    0.0000    0.0000 C   0  0  0  0  0  0  0  0  0  0  0  0
    5.7157    0.0000    0.0000 C   0  0  0  0  0  0  0  0  0  0  0  0
    5.0013    0.0000    0.0000 C   0  0  0  0  0  0  0  0  0  0  0  0
    5.7157    0.0000    0.0000 O   0  0  0  0  0  0  0  0  0  0  0  0
    4.2868    0.0000    0.0000 C   0  0  0  0  0  0  0  0  0  0  0  0
    4.2868    0.0000    0.0000 O   0  0  0  0  0  0  0  0  0  0  0  0
    3.5723    0.0000    0.0000 C   0  0  0  0  0  0  0  0  0  0  0  0
    2.8578    0.0000    0.0000 O   0  0  0  0  0  0  0  0  0  0  0  0
    0.7145    0.0000    0.0000 C   0  0  0  0  0  0  0  0  0  0  0  0
    0.7145    0.0000    0.0000 O   0  0  0  0  0  0  0  0  0  0  0  0
    0.0000    0.0000    0.0000 C   0  0  0  0  0  0  0  0  0  0  0  0
   -0.7145    0.0000    0.0000 O   0  0  0  0  0  0  0  0  0  0  0  0
    0.0000    0.0000    0.0000 C   0  0  0  0  0  0  0  0  0  0  0  0
   -0.7145    0.0000    0.0000 O   0  0  0  0  0  0  0  0  0  0  0  0
   -0.7145    0.0000    0.0000 C   0  0  0  0  0  0  0  0  0  0  0  0
   -1.4290    0.0000    0.0000 C   0  0  0  0  0  0  0  0  0  0  0  0
   -2.1434    0.0000    0.0000 O   0  0  0  0  0  0  0  0  0  0  0  0
  1  2  1  0      
  2  3  1  0      
  3  4  2  0      
  4  5  1  0      
  4  6  1  0      
  6  7  2  0      
  7  8  1  0      
  8  9  2  0      
  3  9  1  0      
  7 10  1  0      
 10 11  2  0      
 11 12  1  0      
 12 13  2  0      
 12 14  1  0      
 14 15  2  0      
 15 16  1  0      
 15 17  1  0      
 17 18  2  0      
 18 19  1  0      
 19 20  1  0      
 20 21  1  0      
 21 22  1  0      
 22 23  1  0      
 23 24  1  0      
 24 25  1  0      
 25 26  1  0      
 26 27  1  0      
 27 28  1  0      
 27 29  1  0      
 29 30  1  0      
 29 31  1  0      
 31 32  1  0      
 31 33  1  0      
 25 33  1  0      
 33 34  1  0      
 22 35  1  0      
 35 36  1  0      
 35 37  1  0      
 37 38  1  0      
 37 39  1  0      
 20 39  1  0      
 39 40  1  0      
 18 41  1  0      
 41 42  2  0      
 14 42  1  0      
 42 43  1  0      
 10 43  1  0      
M  END
>  <Bioactivity>
Diosmin is a semisynthetic phlebotropic agent and a member of the flavonoid family. Extracted from hesperidin;Store the product in sealed, cool and dry condition

>  <CAS>
520-27-4

>  <Col>
5

>  <Formula>
C28H32O15

>  <ID>
T0878

>  <Index>
304

>  <MOLENAME>
Diosmin

>  <MolWt>
608.54

>  <Pathways>
Endocrinology/ Hormones

>  <Plate>
PLATE 004

>  <QR code>
1151476790

>  <Receptor>
norepinephrine

>  <Reference>
1. Veverkov¨¢ L, et al. Rozhl Chir. 2005 Aug;84(8):410-2, 414-6.

>  <Row>
G

>  <SMILES>
COC1=C(O)C=C(C=C1)C1=CC(=O)C2=C(O)C=C(OC3OC(COC4OC(C)C(O)C(O)C4O)C(O)C(O)C3O)C=C2O1

>  <Target>
Norepinephrine

>  <Weight>
10.2mg

$$$$
Lab-1.sdf
  ChemDraw05232018482D

  9  9  0  0  0  0  0  0  0  0999 V2000
   -0.7144    0.0000    0.0000 O   0  0  0  0  0  0  0  0  0  0  0  0
    0.0001    0.0000    0.0000 C   0  0  0  0  0  0  0  0  0  0  0  0
    0.7144    0.0000    0.0000 O   0  0  0  0  0  0  0  0  0  0  0  0
    0.0001    0.0000    0.0000 C   0  0  0  0  0  0  0  0  0  0  0  0
    0.7144    0.0000    0.0000 C   0  0  0  0  0  0  0  0  0  0  0  0
    0.7144    0.0000    0.0000 N   0  0  0  0  0  0  0  0  0  0  0  0
    0.0001    0.0000    0.0000 C   0  0  0  0  0  0  0  0  0  0  0  0
   -0.7144    0.0000    0.0000 C   0  0  0  0  0  0  0  0  0  0  0  0
   -0.7144    0.0000    0.0000 C   0  0  0  0  0  0  0  0  0  0  0  0
  1  2  1  0      
  2  3  2  0      
  2  4  1  0      
  4  5  2  0      
  5  6  1  0      
  6  7  2  0      
  7  8  1  0      
  8  9  2  0      
  4  9  1  0      
M  END
>  <Bioactivity>
Niacin (Vitamin B3) is a water-soluble vitamin and is part of the vitamin B group. 

>  <CAS>
59-67-6

>  <Col>
6

>  <Formula>
C6H5NO2

>  <ID>
T0879

>  <Index>
305

>  <MOLENAME>
Nicotinic acid

>  <MolWt>
123.11

>  <Pathways>
Vitamin

>  <Plate>
PLATE 004

>  <QR code>
1151476789

>  <Receptor>
VB3

>  <Reference>
1. Wise A, et al. J Biol Chem. 2003 Mar 14;278(11):9869-74. 

>  <Row>
G

>  <SMILES>
OC(=O)C1=CN=CC=C1

>  <Target>
VB

>  <Weight>
10.1mg

$$$$
Lab-1.sdf
  ChemDraw05232018482D

 11 12  0  0  0  0  0  0  0  0999 V2000
   -1.2127    0.0000    0.0000 C   0  0  0  0  0  0  0  0  0  0  0  0
   -0.4224    0.0000    0.0000 C   0  0  0  0  0  0  0  0  0  0  0  0
   -1.2127    0.0000    0.0000 C   0  0  0  0  0  0  0  0  0  0  0  0
   -0.2162    0.0000    0.0000 C   0  0  0  0  0  0  0  0  0  0  0  0
   -0.9306    0.0000    0.0000 C   0  0  0  0  0  0  0  0  0  0  0  0
   -0.9306    0.0000    0.0000 C   0  0  0  0  0  0  0  0  0  0  0  0
   -0.2162    0.0000    0.0000 C   0  0  0  0  0  0  0  0  0  0  0  0
   -0.2162    0.0000    0.0000 C   0  0  0  0  0  0  0  0  0  0  0  0
    0.4982    0.0000    0.0000 C   0  0  0  0  0  0  0  0  0  0  0  0
    1.2127    0.0000    0.0000 O   0  0  0  0  0  0  0  0  0  0  0  0
    0.4982    0.0000    0.0000 C   0  0  0  0  0  0  0  0  0  0  0  0
  1  2  1  0      
  2  3  1  0      
  2  4  1  0      
  4  5  1  0      
  5  6  1  0      
  6  7  1  0      
  2  7  1  0      
  7  8  1  0      
  7  9  1  0      
  9 10  2  0      
  9 11  1  0      
  4 11  1  0      
M  END
>  <Bioactivity>
(+)-Camphor is an ingredient in cooking, and as an embalming fluid for medicinal purposes.

>  <CAS>
464-49-3

>  <Col>
7

>  <Formula>
C10H16O

>  <ID>
T0882

>  <Index>
306

>  <MOLENAME>
D-Camphor

>  <MolWt>
152.24

>  <Pathways>
Membrane Transporter/Ion Channel

>  <Plate>
PLATE 004

>  <QR code>
1151476788

>  <Receptor>
TRPV3

>  <Reference>
1. Imming P, et al. Nat Rev Drug Discov. 2006 Oct; 5(10):821-34. 

>  <Row>
G

>  <SMILES>
CC1(C)C2CCC1(C)C(=O)C2

>  <Target>
TRP/TRPV Channel inhibitor

>  <Weight>
10.3mg

$$$$
Lab-1.sdf
  ChemDraw05232018482D

  8  7  0  0  0  0  0  0  0  0999 V2000
   -1.1269    0.0000    0.0000 N   0  0  0  0  0  0  0  0  0  0  0  0
   -0.4126    0.0000    0.0000 C   0  0  0  0  0  0  0  0  0  0  0  0
   -0.4126    0.0000    0.0000 C   0  0  0  0  0  0  0  0  0  0  0  0
    0.3019    0.0000    0.0000 C   0  0  0  0  0  0  0  0  0  0  0  0
    0.3019    0.0000    0.0000 S   0  0  0  0  0  0  0  0  0  0  0  0
    0.3019    0.0000    0.0000 O   0  0  0  0  0  0  0  0  0  0  0  0
    1.1269    0.0000    0.0000 O   0  0  0  0  0  0  0  0  0  0  0  0
   -0.5230    0.0000    0.0000 O   0  0  0  0  0  0  0  0  0  0  0  0
  1  2  1  0      
  2  3  1  0      
  3  4  1  0      
  4  5  1  0      
  5  6  1  0      
  5  7  2  0      
  5  8  2  0      
M  END
>  <Bioactivity>
Because of its similarity in structure to the neurotransmitter gamma-aminobutyric acid (GABA), it has GABAergic effects and may be useful as an anticonvulsant. Homotaurine has also been investigated a
s a potential treatment for Alzheimer's disease. It binds to soluble amyloid beta and inhibits the formation of neurotoxic aggregates that lead to amyloid plaque deposition in the brain. However, clin
ical trials failed to show improvement compared to placebo.

>  <CAS>
3687-18-1

>  <Col>
8

>  <Formula>
C3H9NO3S

>  <ID>
T0883

>  <Index>
307

>  <MOLENAME>
Homotaurine

>  <MolWt>
139.17

>  <Pathways>
Neuroscience

>  <Plate>
PLATE 004

>  <QR code>
1151476787

>  <Receptor>
Amyloid ¦Â ; GABA

>  <Reference>
1. Fariello RG, et al. Neurology, 1982, 32 (3): 241?5. 

>  <Row>
G

>  <SMILES>
NCCCS(O)(=O)=O

>  <Target>
Beta Amyloid; GABAR agonist

>  <Weight>
10.1mg

$$$$
Lab-1.sdf
  ChemDraw05232018482D

 23 22  0  0  0  0  0  0  0  0999 V2000
   -7.8590    0.0000    0.0000 C   0  0  0  0  0  0  0  0  0  0  0  0
   -7.1445    0.0000    0.0000 C   0  0  0  0  0  0  0  0  0  0  0  0
   -6.4300    0.0000    0.0000 C   0  0  0  0  0  0  0  0  0  0  0  0
   -5.7156    0.0000    0.0000 C   0  0  0  0  0  0  0  0  0  0  0  0
   -5.0012    0.0000    0.0000 C   0  0  0  0  0  0  0  0  0  0  0  0
   -4.2867    0.0000    0.0000 C   0  0  0  0  0  0  0  0  0  0  0  0
   -3.5722    0.0000    0.0000 C   0  0  0  0  0  0  0  0  0  0  0  0
   -2.8578    0.0000    0.0000 C   0  0  0  0  0  0  0  0  0  0  0  0
   -2.1433    0.0000    0.0000 C   0  0  0  0  0  0  0  0  0  0  0  0
   -1.4289    0.0000    0.0000 C   0  0  0  0  0  0  0  0  0  0  0  0
   -0.7145    0.0000    0.0000 C   0  0  0  0  0  0  0  0  0  0  0  0
    0.0000    0.0000    0.0000 C   0  0  0  0  0  0  0  0  0  0  0  0
    0.7145    0.0000    0.0000 C   0  0  0  0  0  0  0  0  0  0  0  0
    1.4290    0.0000    0.0000 C   0  0  0  0  0  0  0  0  0  0  0  0
    2.1433    0.0000    0.0000 C   0  0  0  0  0  0  0  0  0  0  0  0
    2.8578    0.0000    0.0000 C   0  0  0  0  0  0  0  0  0  0  0  0
    3.5723    0.0000    0.0000 C   0  0  0  0  0  0  0  0  0  0  0  0
    4.2867    0.0000    0.0000 C   0  0  0  0  0  0  0  0  0  0  0  0
    5.0012    0.0000    0.0000 C   0  0  0  0  0  0  0  0  0  0  0  0
    5.7156    0.0000    0.0000 C   0  0  0  0  0  0  0  0  0  0  0  0
    6.4300    0.0000    0.0000 C   0  0  0  0  0  0  0  0  0  0  0  0
    7.1445    0.0000    0.0000 C   0  0  0  0  0  0  0  0  0  0  0  0
    7.8590    0.0000    0.0000 O   0  0  0  0  0  0  0  0  0  0  0  0
  1  2  1  0      
  2  3  1  0      
  3  4  1  0      
  4  5  1  0      
  5  6  1  0      
  6  7  1  0      
  7  8  1  0      
  8  9  1  0      
  9 10  1  0      
 10 11  1  0      
 11 12  1  0      
 12 13  1  0      
 13 14  1  0      
 14 15  1  0      
 15 16  1  0      
 16 17  1  0      
 17 18  1  0      
 18 19  1  0      
 19 20  1  0      
 20 21  1  0      
 21 22  1  0      
 22 23  1  0      
M  END
>  <Bioactivity>
1-Docosanol is a saturated fatty alcohol used traditionally as an emollient, emulsifier, and thickener in cosmetics, and nutritional supplement; inhibitor of lipid-enveloped viruses including herpes s
implex.

>  <CAS>
661-19-8

>  <Col>
9

>  <Formula>
C22H46O

>  <ID>
T0884

>  <Index>
308

>  <MOLENAME>
Behenic alcohol

>  <MolWt>
326.6

>  <Pathways>
Microbiology & Virology

>  <Plate>
PLATE 004

>  <QR code>
1151476786

>  <Receptor>
GP350; GP340

>  <Reference>
1. Leung DT, Sacks SL. Expert Opin PharmacOthers. 2004 Dec;5(12):2567-71. 

>  <Row>
G

>  <SMILES>
CCCCCCCCCCCCCCCCCCCCCCO

>  <Target>
Antibiotic

>  <Weight>
10.2mg

$$$$
Lab-1.sdf
  ChemDraw05232018482D

 12 11  0  0  0  0  0  0  0  0999 V2000
   -2.5006    0.0000    0.0000 O   0  0  0  0  0  0  0  0  0  0  0  0
   -1.7862    0.0000    0.0000 C   0  0  0  0  0  0  0  0  0  0  0  0
   -1.0718    0.0000    0.0000 C   0  0  0  0  0  0  0  0  0  0  0  0
   -1.0718    0.0000    0.0000 O   0  0  0  0  0  0  0  0  0  0  0  0
   -0.3573    0.0000    0.0000 C   0  0  0  0  0  0  0  0  0  0  0  0
   -0.3573    0.0000    0.0000 O   0  0  0  0  0  0  0  0  0  0  0  0
    0.3571    0.0000    0.0000 C   0  0  0  0  0  0  0  0  0  0  0  0
    0.3571    0.0000    0.0000 O   0  0  0  0  0  0  0  0  0  0  0  0
    1.0716    0.0000    0.0000 C   0  0  0  0  0  0  0  0  0  0  0  0
    1.0716    0.0000    0.0000 O   0  0  0  0  0  0  0  0  0  0  0  0
    1.7861    0.0000    0.0000 C   0  0  0  0  0  0  0  0  0  0  0  0
    2.5006    0.0000    0.0000 O   0  0  0  0  0  0  0  0  0  0  0  0
  1  2  1  0      
  2  3  1  0      
  3  4  1  0      
  3  5  1  0      
  5  6  1  0      
  5  7  1  0      
  7  8  1  0      
  7  9  1  0      
  9 10  1  0      
  9 11  1  0      
 11 12  2  0      
M  END
>  <Bioactivity>
Dextrose, a simple sugar (monosaccharide), is an important carbohydrate in biology. 

>  <CAS>
50-99-7

>  <Col>
10

>  <Formula>
C6H12O6

>  <ID>
T0887

>  <Index>
309

>  <MOLENAME>
D(+)-Glucose

>  <MolWt>
180.16

>  <Pathways>
Others

>  <Plate>
PLATE 004

>  <QR code>
1151476785

>  <Receptor>
Others

>  <Reference>
1. Feldman-Billard S, et al. Diabetes Res Clin Pract. 2013 Nov;102(2):e35-7. 

>  <Row>
G

>  <SMILES>
OCC(O)C(O)C(O)C(O)C=O

>  <Target>
Others

>  <Weight>
10mg

$$$$
Lab-1.sdf
  ChemDraw05232018482D

 20 19  0  0  0  0  0  0  0  0999 V2000
    0.3709    0.0000    0.0000 Cl  0  0  0  0  0  0  0  0  0  0  0  0
    2.7281    0.0000    0.0000 Cl  0  5  0  0  0  0  0  0  0  0  0  0
   -0.5273    0.0000    0.0000 C   0  0  0  0  0  0  0  0  0  0  0  0
   -0.5273    0.0000    0.0000 C   0  0  0  0  0  0  0  0  0  0  0  0
   -1.1948    0.0000    0.0000 C   0  0  0  0  0  0  0  0  0  0  0  0
   -1.9794    0.0000    0.0000 C   0  0  0  0  0  0  0  0  0  0  0  0
   -2.5926    0.0000    0.0000 C   0  0  0  0  0  0  0  0  0  0  0  0
   -3.3772    0.0000    0.0000 O   0  0  0  0  0  0  0  0  0  0  0  0
   -0.9398    0.0000    0.0000 S   0  0  0  0  0  0  0  0  0  0  0  0
   -0.1148    0.0000    0.0000 C   0  0  0  0  0  0  0  0  0  0  0  0
    0.1401    0.0000    0.0000 N   0  3  0  0  0  0  0  0  0  0  0  0
    0.9247    0.0000    0.0000 C   0  0  0  0  0  0  0  0  0  0  0  0
    1.5378    0.0000    0.0000 C   0  0  0  0  0  0  0  0  0  0  0  0
    2.3225    0.0000    0.0000 C   0  0  0  0  0  0  0  0  0  0  0  0
    2.9356    0.0000    0.0000 N   0  0  0  0  0  0  0  0  0  0  0  0
    2.7641    0.0000    0.0000 C   0  0  0  0  0  0  0  0  0  0  0  0
    3.3772    0.0000    0.0000 C   0  0  0  0  0  0  0  0  0  0  0  0
    1.9794    0.0000    0.0000 N   0  0  0  0  0  0  0  0  0  0  0  0
    1.3663    0.0000    0.0000 C   0  0  0  0  0  0  0  0  0  0  0  0
    0.5817    0.0000    0.0000 N   0  0  0  0  0  0  0  0  0  0  0  0
  3  4  1  0      
  4  5  2  0      
  5  6  1  0      
  6  7  1  0      
  7  8  1  0      
  5  9  1  0      
  9 10  1  0      
 10 11  2  0      
  4 11  1  0      
 11 12  1  0      
 12 13  1  0      
 13 14  2  0      
 14 15  1  0      
 15 16  2  0      
 16 17  1  0      
 16 18  1  0      
 18 19  2  0      
 13 19  1  0      
 19 20  1  0      
M  CHG  2   2  -1  11   1
M  END
>  <Bioactivity>
Thiamine or vitamin B1 is a water-soluble vitamin of the B complex, its phosphate derivatives are involved in many cellular processes. Thiamine deficiency results in amyloid precursor protein immunore
activity accumulated in swollen neurites within, or around lesions in rats, or in abnormal clusters in mice.

>  <CAS>
67-03-8

>  <Col>
11

>  <Formula>
C12H18Cl2N4OS

>  <ID>
T0894

>  <Index>
310

>  <MOLENAME>
Thiamine hydrochloride

>  <MolWt>
337.27

>  <Pathways>
Vitamin

>  <Plate>
PLATE 004

>  <QR code>
1151476784

>  <Receptor>
VB1

>  <Reference>
1. Ahn IP, et al. Plant Physiol, 2005, 138(3), 1505-1515. 

>  <Row>
G

>  <SMILES>
Cl.[Cl-].CC1=C(CCO)SC=[N+]1CC1=CN=C(C)N=C1N

>  <Target>
VB

>  <Weight>
9.9mg

$$$$
Lab-1.sdf
  ChemDraw05232018482D

 22 25  0  0  0  0  0  0  0  0999 V2000
   -2.1307    0.0000    0.0000 C   0  0  0  0  0  0  0  0  0  0  0  0
   -1.7709    0.0000    0.0000 C   0  0  0  0  0  0  0  0  0  0  0  0
   -1.2390    0.0000    0.0000 C   0  0  0  0  0  0  0  0  0  0  0  0
   -0.4269    0.0000    0.0000 C   0  0  0  0  0  0  0  0  0  0  0  0
    0.1049    0.0000    0.0000 O   0  0  0  0  0  0  0  0  0  0  0  0
   -0.1466    0.0000    0.0000 C   0  0  0  0  0  0  0  0  0  0  0  0
   -0.6784    0.0000    0.0000 C   0  0  0  0  0  0  0  0  0  0  0  0
   -0.3982    0.0000    0.0000 C   0  0  0  0  0  0  0  0  0  0  0  0
    0.4140    0.0000    0.0000 C   0  0  0  0  0  0  0  0  0  0  0  0
    0.9458    0.0000    0.0000 C   0  0  0  0  0  0  0  0  0  0  0  0
    1.7579    0.0000    0.0000 C   0  0  0  0  0  0  0  0  0  0  0  0
    2.2898    0.0000    0.0000 C   0  0  0  0  0  0  0  0  0  0  0  0
    3.1019    0.0000    0.0000 O   0  0  0  0  0  0  0  0  0  0  0  0
    2.0094    0.0000    0.0000 C   0  0  0  0  0  0  0  0  0  0  0  0
    1.1973    0.0000    0.0000 C   0  0  0  0  0  0  0  0  0  0  0  0
    0.6655    0.0000    0.0000 C   0  0  0  0  0  0  0  0  0  0  0  0
    0.3852    0.0000    0.0000 C   0  0  0  0  0  0  0  0  0  0  0  0
   -1.4906    0.0000    0.0000 C   0  0  0  0  0  0  0  0  0  0  0  0
   -2.1420    0.0000    0.0000 C   0  0  0  0  0  0  0  0  0  0  0  0
   -2.8248    0.0000    0.0000 C   0  0  0  0  0  0  0  0  0  0  0  0
   -2.5955    0.0000    0.0000 C   0  0  0  0  0  0  0  0  0  0  0  0
   -3.1019    0.0000    0.0000 O   0  0  0  0  0  0  0  0  0  0  0  0
  1  2  1  0      
  2  3  1  0      
  3  4  1  0      
  4  5  2  0      
  4  6  1  0      
  6  7  1  0      
  7  8  1  0      
  8  9  1  0      
  9 10  1  0      
 10 11  2  0      
 11 12  1  0      
 12 13  2  0      
 12 14  1  0      
 14 15  1  0      
 15 16  1  0      
  6 16  1  0      
 10 16  1  0      
 16 17  1  0      
  7 18  1  0      
  2 18  1  0      
 18 19  1  0      
 19 20  1  0      
 20 21  1  0      
  2 21  1  0      
 21 22  2  0      
M  END
>  <Bioactivity>
Adrenosterone is a steroid hormone with weak androgenic effect. 

>  <CAS>
382-45-6

>  <Col>
2

>  <Formula>
C19H24O3

>  <ID>
T2207

>  <Index>
311

>  <MOLENAME>
Adrenosterone

>  <MolWt>
300.4

>  <Pathways>
Endocrinology/ Hormones

>  <Plate>
PLATE 004

>  <QR code>
1151476772

>  <Receptor>
androgenic receptor

>  <Reference>
1. Blasco M, et al. J Chromatogr B Analyt Technol Biomed Life Sci. 2009 May 15;877(14-15):1509-15. 

>  <Row>
H

>  <SMILES>
CC12CC(=O)C3C(CCC4=CC(=O)CCC34C)C1CCC2=O

>  <Target>
Androgen Receptor antagonist

>  <Weight>
10.2mg

$$$$
Lab-1.sdf
  ChemDraw05232018482D

 14 14  0  0  0  0  0  0  0  0999 V2000
   -3.3010    0.0000    0.0000 Cl  0  0  0  0  0  0  0  0  0  0  0  0
   -0.9439    0.0000    0.0000 N   0  0  0  0  0  0  0  0  0  0  0  0
   -0.6889    0.0000    0.0000 C   0  0  0  0  0  0  0  0  0  0  0  0
    0.1181    0.0000    0.0000 C   0  0  0  0  0  0  0  0  0  0  0  0
    0.3730    0.0000    0.0000 C   0  0  0  0  0  0  0  0  0  0  0  0
   -0.1119    0.0000    0.0000 C   0  0  0  0  0  0  0  0  0  0  0  0
    0.3730    0.0000    0.0000 N   0  0  0  0  0  0  0  0  0  0  0  0
    1.1576    0.0000    0.0000 C   0  0  0  0  0  0  0  0  0  0  0  0
    1.1576    0.0000    0.0000 C   0  0  0  0  0  0  0  0  0  0  0  0
    1.8721    0.0000    0.0000 C   0  0  0  0  0  0  0  0  0  0  0  0
    2.5866    0.0000    0.0000 C   0  0  0  0  0  0  0  0  0  0  0  0
    3.3010    0.0000    0.0000 O   0  0  0  0  0  0  0  0  0  0  0  0
    2.5866    0.0000    0.0000 C   0  0  0  0  0  0  0  0  0  0  0  0
    1.8721    0.0000    0.0000 C   0  0  0  0  0  0  0  0  0  0  0  0
  2  3  1  0      
  3  4  1  0      
  4  5  1  0      
  5  6  2  0      
  6  7  1  0      
  7  8  1  0      
  8  9  2  0      
  5  9  1  0      
  9 10  1  0      
 10 11  2  0      
 11 12  1  0      
 11 13  1  0      
 13 14  2  0      
  8 14  1  0      
M  END
>  <Bioactivity>
Serotonin hydrochloride is a monoamine neurotransmitter and Endogenous 5-HT receptor agonist.

>  <CAS>
153-98-0

>  <Col>
3

>  <Formula>
C10H12N2O?HCl

>  <ID>
T2209

>  <Index>
312

>  <MOLENAME>
Serotonin hydrochloride

>  <MolWt>
212.68

>  <Pathways>
Neuroscience

>  <Plate>
PLATE 004

>  <QR code>
1151476773

>  <Receptor>
5-HT Receptor

>  <Reference>
1. Lamichhane K, et al. Ecotoxicol Environ Saf. 2014 Mar;101:124-30. 

>  <Row>
H

>  <SMILES>
Cl.NCCC1=CNC2=C1C=C(O)C=C2

>  <Target>
5-HT Receptor antagonist

>  <Weight>
10.2mg

$$$$
Lab-1.sdf
  ChemDraw05232018482D

 45 52  0  0  0  0  0  0  0  0999 V2000
    4.3872    0.0000    0.0000 C   0  0  0  0  0  0  0  0  0  0  0  0
    3.6209    0.0000    0.0000 O   0  0  0  0  0  0  0  0  0  0  0  0
    3.0059    0.0000    0.0000 C   0  0  0  0  0  0  0  0  0  0  0  0
    2.2329    0.0000    0.0000 C   0  0  0  0  0  0  0  0  0  0  0  0
    1.9898    0.0000    0.0000 O   0  0  0  0  0  0  0  0  0  0  0  0
    1.4000    0.0000    0.0000 C   0  0  0  0  0  0  0  0  0  0  0  0
    0.7925    0.0000    0.0000 C   0  0  0  0  0  0  0  0  0  0  0  0
    0.0061    0.0000    0.0000 C   0  0  0  0  0  0  0  0  0  0  0  0
   -0.2395    0.0000    0.0000 C   0  0  0  0  0  0  0  0  0  0  0  0
   -1.0705    0.0000    0.0000 C   0  0  0  0  0  0  0  0  0  0  0  0
   -1.9175    0.0000    0.0000 C   0  0  0  0  0  0  0  0  0  0  0  0
   -2.1491    0.0000    0.0000 N   0  0  0  0  0  0  0  0  0  0  0  0
   -1.5745    0.0000    0.0000 C   0  0  0  0  0  0  0  0  0  0  0  0
   -2.9309    0.0000    0.0000 C   0  0  0  0  0  0  0  0  0  0  0  0
   -3.5159    0.0000    0.0000 C   0  0  0  0  0  0  0  0  0  0  0  0
   -3.3197    0.0000    0.0000 C   0  0  0  0  0  0  0  0  0  0  0  0
   -3.9676    0.0000    0.0000 C   0  0  0  0  0  0  0  0  0  0  0  0
   -3.8647    0.0000    0.0000 C   0  0  0  0  0  0  0  0  0  0  0  0
   -3.1125    0.0000    0.0000 C   0  0  0  0  0  0  0  0  0  0  0  0
   -3.1701    0.0000    0.0000 O   0  0  0  0  0  0  0  0  0  0  0  0
   -3.9580    0.0000    0.0000 C   0  0  0  0  0  0  0  0  0  0  0  0
   -4.3872    0.0000    0.0000 O   0  0  0  0  0  0  0  0  0  0  0  0
   -2.4252    0.0000    0.0000 C   0  0  0  0  0  0  0  0  0  0  0  0
   -1.9606    0.0000    0.0000 O   0  0  0  0  0  0  0  0  0  0  0  0
   -1.7548    0.0000    0.0000 C   0  0  0  0  0  0  0  0  0  0  0  0
   -2.1573    0.0000    0.0000 C   0  0  0  0  0  0  0  0  0  0  0  0
   -2.9690    0.0000    0.0000 O   0  0  0  0  0  0  0  0  0  0  0  0
   -3.3740    0.0000    0.0000 C   0  0  0  0  0  0  0  0  0  0  0  0
   -1.7606    0.0000    0.0000 C   0  0  0  0  0  0  0  0  0  0  0  0
   -0.9304    0.0000    0.0000 C   0  0  0  0  0  0  0  0  0  0  0  0
   -0.5280    0.0000    0.0000 C   0  0  0  0  0  0  0  0  0  0  0  0
    0.2895    0.0000    0.0000 C   0  0  0  0  0  0  0  0  0  0  0  0
    0.7132    0.0000    0.0000 N   0  0  0  0  0  0  0  0  0  0  0  0
    1.5241    0.0000    0.0000 C   0  0  0  0  0  0  0  0  0  0  0  0
    0.3498    0.0000    0.0000 C   0  0  0  0  0  0  0  0  0  0  0  0
    1.0165    0.0000    0.0000 C   0  0  0  0  0  0  0  0  0  0  0  0
    1.7522    0.0000    0.0000 C   0  0  0  0  0  0  0  0  0  0  0  0
    2.5482    0.0000    0.0000 C   0  0  0  0  0  0  0  0  0  0  0  0
    3.1722    0.0000    0.0000 C   0  0  0  0  0  0  0  0  0  0  0  0
    1.6279    0.0000    0.0000 C   0  0  0  0  0  0  0  0  0  0  0  0
   -0.4968    0.0000    0.0000 C   0  0  0  0  0  0  0  0  0  0  0  0
   -0.9287    0.0000    0.0000 C   0  0  0  0  0  0  0  0  0  0  0  0
   -2.5294    0.0000    0.0000 C   0  0  0  0  0  0  0  0  0  0  0  0
    0.3615    0.0000    0.0000 C   0  0  0  0  0  0  0  0  0  0  0  0
    1.1533    0.0000    0.0000 C   0  0  0  0  0  0  0  0  0  0  0  0
  1  2  1  0      
  2  3  1  0      
  3  4  2  0      
  4  5  1  0      
  5  6  1  0      
  6  7  2  0      
  7  8  1  0      
  8  9  2  0      
  9 10  1  0      
 10 11  1  0      
 11 12  1  0      
 12 13  1  0      
 12 14  1  0      
 14 15  1  0      
 15 16  1  0      
 16 17  2  0      
 17 18  1  0      
 18 19  2  0      
 19 20  1  0      
 20 21  1  0      
 21 22  1  0      
 18 22  1  0      
 19 23  1  0      
 23 24  1  0      
 24 25  1  0      
 25 26  2  0      
 26 27  1  0      
 27 28  1  0      
 26 29  1  0      
 29 30  2  0      
 30 31  1  0      
 31 32  1  0      
 32 33  1  0      
 33 34  1  0      
 33 35  1  0      
 35 36  1  0      
 36 37  1  0      
 37 38  1  0      
 38 39  2  0      
  3 39  1  0      
 37 40  2  0      
  4 40  1  0      
 35 41  1  0      
 30 41  1  0      
 41 42  2  0      
 25 42  1  0      
 23 43  2  0      
 11 43  1  0      
 16 43  1  0      
  9 44  1  0      
 44 45  2  0      
  6 45  1  0      
M  END
>  <Bioactivity>
Cepharanthine is a biscoclaurine alkaloid inhibiting tumor necrosis factor (TNF)-¦Á-mediated NF¦ÊB stimulation, plasma membrane lipid peroxidation and platelet aggregation and suppressing cytokine pro
duction.

>  <CAS>
481-49-2

>  <Col>
4

>  <Formula>
C37H38N2O6

>  <ID>
T0131

>  <Index>
313

>  <MOLENAME>
Cepharanthine

>  <MolWt>
606.73

>  <Pathways>
Others

>  <Plate>
PLATE 004

>  <QR code>
1151476774

>  <Receptor>
Others

>  <Reference>
1. Huang H, et al. Inflammation. 2014 Feb;37(1):235-46. 

>  <Row>
H

>  <SMILES>
COC1=C2OC3=CC=C(CC4N(C)CCC5=CC6=C(OCO6)C(OC6=C(OC)C=C7CCN(C)C(CC(C=C1)=C2)C7=C6)=C45)C=C3

>  <Target>
Others

>  <Weight>
10.4mg

$$$$
Lab-1.sdf
  ChemDraw05232018482D

 27 29  0  0  0  0  0  0  0  0999 V2000
    0.9920    0.0000    0.0000 C   0  0  0  0  0  0  0  0  0  0  0  0
    0.2775    0.0000    0.0000 O   0  0  0  0  0  0  0  0  0  0  0  0
   -0.4370    0.0000    0.0000 C   0  0  0  0  0  0  0  0  0  0  0  0
   -1.1513    0.0000    0.0000 O   0  0  0  0  0  0  0  0  0  0  0  0
   -0.4370    0.0000    0.0000 C   0  0  0  0  0  0  0  0  0  0  0  0
    0.2775    0.0000    0.0000 C   0  0  0  0  0  0  0  0  0  0  0  0
    0.2775    0.0000    0.0000 O   0  0  0  0  0  0  0  0  0  0  0  0
   -0.4370    0.0000    0.0000 C   0  0  0  0  0  0  0  0  0  0  0  0
   -0.4370    0.0000    0.0000 O   0  0  0  0  0  0  0  0  0  0  0  0
    0.2775    0.0000    0.0000 C   0  0  0  0  0  0  0  0  0  0  0  0
    0.9920    0.0000    0.0000 O   0  0  0  0  0  0  0  0  0  0  0  0
    1.7064    0.0000    0.0000 C   0  0  0  0  0  0  0  0  0  0  0  0
    2.4209    0.0000    0.0000 C   0  0  0  0  0  0  0  0  0  0  0  0
    2.4209    0.0000    0.0000 O   0  0  0  0  0  0  0  0  0  0  0  0
    1.7064    0.0000    0.0000 C   0  0  0  0  0  0  0  0  0  0  0  0
    2.4209    0.0000    0.0000 O   0  0  0  0  0  0  0  0  0  0  0  0
    0.9920    0.0000    0.0000 C   0  0  0  0  0  0  0  0  0  0  0  0
    0.9920    0.0000    0.0000 O   0  0  0  0  0  0  0  0  0  0  0  0
    0.2775    0.0000    0.0000 C   0  0  0  0  0  0  0  0  0  0  0  0
   -0.4370    0.0000    0.0000 O   0  0  0  0  0  0  0  0  0  0  0  0
   -1.1513    0.0000    0.0000 C   0  0  0  0  0  0  0  0  0  0  0  0
   -1.1513    0.0000    0.0000 C   0  0  0  0  0  0  0  0  0  0  0  0
   -1.9360    0.0000    0.0000 C   0  0  0  0  0  0  0  0  0  0  0  0
   -2.4209    0.0000    0.0000 C   0  0  0  0  0  0  0  0  0  0  0  0
   -1.9360    0.0000    0.0000 C   0  0  0  0  0  0  0  0  0  0  0  0
   -2.1909    0.0000    0.0000 C   0  0  0  0  0  0  0  0  0  0  0  0
   -1.6390    0.0000    0.0000 O   0  0  0  0  0  0  0  0  0  0  0  0
  1  2  1  0      
  2  3  1  0      
  3  4  2  0      
  3  5  1  0      
  5  6  2  0      
  6  7  1  0      
  7  8  1  0      
  8  9  1  0      
  9 10  1  0      
 10 11  1  0      
 11 12  1  0      
 12 13  1  0      
 13 14  1  0      
 12 15  1  0      
 15 16  1  0      
 15 17  1  0      
 17 18  1  0      
 17 19  1  0      
 10 19  1  0      
 19 20  1  0      
  8 21  1  0      
 21 22  1  0      
  5 22  1  0      
 22 23  1  0      
 23 24  1  0      
 24 25  2  0      
 21 25  1  0      
 25 26  1  0      
 26 27  1  0      
M  END
>  <Bioactivity>
Geniposide is an iridoid glycoside with a variety of biological activities including neuroprotective,anti-diabetic,antiproliferative,and antioxidative activity. Geniposide has been shown to regulate N
rf2 translocation.

>  <CAS>
24512-63-8

>  <Col>
5

>  <Formula>
C17H24O10

>  <ID>
T2212

>  <Index>
314

>  <MOLENAME>
Geniposide

>  <MolWt>
388.37

>  <Pathways>
Others

>  <Plate>
PLATE 004

>  <QR code>
1151476775

>  <Receptor>
Others

>  <Reference>
1. Zhang Y, et al. Neurochem Int. 2015 Apr 13. pii: S0197-0186(15)00063-7.

>  <Row>
H

>  <SMILES>
COC(=O)C1=COC(OC2OC(CO)C(O)C(O)C2O)C2C1CC=C2CO

>  <Target>
Others

>  <Weight>
10.4mg

$$$$
Lab-1.sdf
  ChemDraw05232018482D

 16 17  0  0  0  0  0  0  0  0999 V2000
   -2.0161    0.0000    0.0000 N   0  0  0  0  0  0  0  0  0  0  0  0
   -1.4640    0.0000    0.0000 C   0  0  0  0  0  0  0  0  0  0  0  0
   -0.6570    0.0000    0.0000 C   0  0  0  0  0  0  0  0  0  0  0  0
   -0.4021    0.0000    0.0000 C   0  0  0  0  0  0  0  0  0  0  0  0
   -0.8870    0.0000    0.0000 C   0  0  0  0  0  0  0  0  0  0  0  0
   -0.4021    0.0000    0.0000 N   0  0  0  0  0  0  0  0  0  0  0  0
    0.3825    0.0000    0.0000 C   0  0  0  0  0  0  0  0  0  0  0  0
    0.3825    0.0000    0.0000 C   0  0  0  0  0  0  0  0  0  0  0  0
    1.0970    0.0000    0.0000 C   0  0  0  0  0  0  0  0  0  0  0  0
    1.8115    0.0000    0.0000 C   0  0  0  0  0  0  0  0  0  0  0  0
    2.5259    0.0000    0.0000 O   0  0  0  0  0  0  0  0  0  0  0  0
    1.8115    0.0000    0.0000 C   0  0  0  0  0  0  0  0  0  0  0  0
    1.0970    0.0000    0.0000 C   0  0  0  0  0  0  0  0  0  0  0  0
   -1.7190    0.0000    0.0000 C   0  0  0  0  0  0  0  0  0  0  0  0
   -2.5259    0.0000    0.0000 O   0  0  0  0  0  0  0  0  0  0  0  0
   -1.1669    0.0000    0.0000 O   0  0  0  0  0  0  0  0  0  0  0  0
  1  2  1  0      
  2  3  1  0      
  3  4  1  0      
  4  5  2  0      
  5  6  1  0      
  6  7  1  0      
  7  8  2  0      
  4  8  1  0      
  8  9  1  0      
  9 10  2  0      
 10 11  1  0      
 10 12  1  0      
 12 13  2  0      
  7 13  1  0      
  2 14  1  0      
 14 15  1  0      
 14 16  2  0      
M  END
>  <Bioactivity>
The immediate precursor in the biosynthesis of SEROTONIN from tryptophan. It is used as an antiepileptic and antidepressant. 

>  <CAS>
4350-09-8

>  <Col>
6

>  <Formula>
C11H12N2O3

>  <ID>
T1379

>  <Index>
315

>  <MOLENAME>
L-5-Hydroxytryptophan

>  <MolWt>
220.22

>  <Pathways>
Amino Acids & Building Blocks

>  <Plate>
PLATE 004

>  <QR code>
1151476776

>  <Receptor>
Amino Acids and Derivatives

>  <Reference>
1. Overington JP, et al. Nat Rev Drug Discov. 2006 Dec;5(12):993-6.

>  <Row>
H

>  <SMILES>
NC(CC1=CNC2=C1C=C(O)C=C2)C(O)=O

>  <Target>
Amino Acids and Derivatives

>  <Weight>
9.8mg

$$$$
Lab-1.sdf
  ChemDraw05232018482D

 13 12  0  0  0  0  0  0  0  0999 V2000
   -2.3717    0.0000    0.0000 Cl  0  0  0  0  0  0  0  0  0  0  0  0
    1.6573    0.0000    0.0000 C   0  0  0  0  0  0  0  0  0  0  0  0
    1.6573    0.0000    0.0000 C   0  0  0  0  0  0  0  0  0  0  0  0
    2.3717    0.0000    0.0000 N   0  0  0  0  0  0  0  0  0  0  0  0
    2.3717    0.0000    0.0000 C   0  0  0  0  0  0  0  0  0  0  0  0
    1.6573    0.0000    0.0000 C   0  0  0  0  0  0  0  0  0  0  0  0
    1.6573    0.0000    0.0000 C   0  0  0  0  0  0  0  0  0  0  0  0
    2.3717    0.0000    0.0000 O   0  0  0  0  0  0  0  0  0  0  0  0
    0.9429    0.0000    0.0000 C   0  0  0  0  0  0  0  0  0  0  0  0
    0.2284    0.0000    0.0000 C   0  0  0  0  0  0  0  0  0  0  0  0
   -0.4861    0.0000    0.0000 O   0  0  0  0  0  0  0  0  0  0  0  0
    0.9429    0.0000    0.0000 C   0  0  0  0  0  0  0  0  0  0  0  0
    0.2284    0.0000    0.0000 O   0  0  0  0  0  0  0  0  0  0  0  0
  2  3  1  0      
  3  4  2  0      
  4  5  1  0      
  5  6  2  0      
  6  7  1  0      
  7  8  1  0      
  6  9  1  0      
  9 10  1  0      
 10 11  1  0      
  9 12  2  0      
  3 12  1  0      
 12 13  1  0      
M  END
>  <Bioactivity>
Pyridoxine hydrochloride is a form of vitamin B6.

>  <CAS>
58-56-0

>  <Col>
7

>  <Formula>
C8H11NO3?HCl

>  <ID>
T0973L

>  <Index>
316

>  <MOLENAME>
Pyridoxine hydrochloride

>  <MolWt>
205.64

>  <Pathways>
Vitamin

>  <Plate>
PLATE 004

>  <QR code>
1151476777

>  <Receptor>
VB6

>  <Reference>
1. Rosenberg JM, et al. J Pharm Sci, 1979, 68(9), 1179-1181.

>  <Row>
H

>  <SMILES>
Cl.CC1=NC=C(CO)C(CO)=C1O

>  <Target>
VB

>  <Weight>
10.2mg

$$$$
Lab-1.sdf
  ChemDraw05232018482D

 24 23  0  0  0  0  0  0  0  0999 V2000
   -7.8590    0.0000    0.0000 C   0  0  0  0  0  0  0  0  0  0  0  0
   -7.1445    0.0000    0.0000 C   0  0  0  0  0  0  0  0  0  0  0  0
   -6.4300    0.0000    0.0000 C   0  0  0  0  0  0  0  0  0  0  0  0
   -5.7156    0.0000    0.0000 C   0  0  0  0  0  0  0  0  0  0  0  0
   -5.0011    0.0000    0.0000 C   0  0  0  0  0  0  0  0  0  0  0  0
   -4.2867    0.0000    0.0000 C   0  0  0  0  0  0  0  0  0  0  0  0
   -3.5722    0.0000    0.0000 C   0  0  0  0  0  0  0  0  0  0  0  0
   -2.8578    0.0000    0.0000 C   0  0  0  0  0  0  0  0  0  0  0  0
   -2.1433    0.0000    0.0000 C   0  0  0  0  0  0  0  0  0  0  0  0
   -1.4289    0.0000    0.0000 C   0  0  0  0  0  0  0  0  0  0  0  0
   -0.7145    0.0000    0.0000 C   0  0  0  0  0  0  0  0  0  0  0  0
    0.0000    0.0000    0.0000 C   0  0  0  0  0  0  0  0  0  0  0  0
    0.7145    0.0000    0.0000 C   0  0  0  0  0  0  0  0  0  0  0  0
    1.4290    0.0000    0.0000 C   0  0  0  0  0  0  0  0  0  0  0  0
    2.1433    0.0000    0.0000 C   0  0  0  0  0  0  0  0  0  0  0  0
    2.8578    0.0000    0.0000 C   0  0  0  0  0  0  0  0  0  0  0  0
    3.5723    0.0000    0.0000 C   0  0  0  0  0  0  0  0  0  0  0  0
    4.2867    0.0000    0.0000 C   0  0  0  0  0  0  0  0  0  0  0  0
    5.0011    0.0000    0.0000 O   0  0  0  0  0  0  0  0  0  0  0  0
    5.7156    0.0000    0.0000 C   0  0  0  0  0  0  0  0  0  0  0  0
    6.4300    0.0000    0.0000 C   0  0  0  0  0  0  0  0  0  0  0  0
    6.4300    0.0000    0.0000 O   0  0  0  0  0  0  0  0  0  0  0  0
    7.1445    0.0000    0.0000 C   0  0  0  0  0  0  0  0  0  0  0  0
    7.8590    0.0000    0.0000 O   0  0  0  0  0  0  0  0  0  0  0  0
  1  2  1  0      
  2  3  1  0      
  3  4  1  0      
  4  5  1  0      
  5  6  1  0      
  6  7  1  0      
  7  8  1  0      
  8  9  1  0      
  9 10  1  0      
 10 11  1  0      
 11 12  1  0      
 12 13  1  0      
 13 14  1  0      
 14 15  1  0      
 15 16  1  0      
 16 17  1  0      
 17 18  1  0      
 18 19  1  0      
 19 20  1  0      
 20 21  1  0      
 21 22  1  0      
 21 23  1  0      
 23 24  1  0      
M  END
>  <Bioactivity>
Batyl alcohol has been approved in clinical treatment of aleucocytosis that caused by radiotherapy, chemotherapy.

>  <CAS>
544-62-7

>  <Col>
8

>  <Formula>
C21H44O3

>  <ID>
T3004

>  <Index>
317

>  <MOLENAME>
Batyl alcohol

>  <MolWt>
344.58

>  <Pathways>
Others

>  <Plate>
PLATE 004

>  <QR code>
1151476778

>  <Receptor>
Others

>  <Reference>
1. Suemune H, et al. Chem Pharm Bull (Tokyo). 1987 Aug;35(8):3112-8.

>  <Row>
H

>  <SMILES>
CCCCCCCCCCCCCCCCCCOCC(O)CO

>  <Target>
Others

>  <Weight>
9.8mg

$$$$
Lab-1.sdf
  ChemDraw05232018482D

 13 14  0  0  0  0  0  0  0  0999 V2000
   -2.1433    0.0000    0.0000 O   0  0  0  0  0  0  0  0  0  0  0  0
   -1.4289    0.0000    0.0000 C   0  0  0  0  0  0  0  0  0  0  0  0
   -1.4289    0.0000    0.0000 C   0  0  0  0  0  0  0  0  0  0  0  0
   -2.1433    0.0000    0.0000 O   0  0  0  0  0  0  0  0  0  0  0  0
   -0.7145    0.0000    0.0000 C   0  0  0  0  0  0  0  0  0  0  0  0
   -0.0000    0.0000    0.0000 C   0  0  0  0  0  0  0  0  0  0  0  0
    0.7145    0.0000    0.0000 C   0  0  0  0  0  0  0  0  0  0  0  0
    1.4290    0.0000    0.0000 C   0  0  0  0  0  0  0  0  0  0  0  0
    1.4290    0.0000    0.0000 C   0  0  0  0  0  0  0  0  0  0  0  0
    2.1433    0.0000    0.0000 O   0  0  0  0  0  0  0  0  0  0  0  0
    0.7145    0.0000    0.0000 O   0  0  0  0  0  0  0  0  0  0  0  0
   -0.0000    0.0000    0.0000 C   0  0  0  0  0  0  0  0  0  0  0  0
   -0.7145    0.0000    0.0000 C   0  0  0  0  0  0  0  0  0  0  0  0
  1  2  1  0      
  2  3  2  0      
  3  4  1  0      
  3  5  1  0      
  5  6  2  0      
  6  7  1  0      
  7  8  2  0      
  8  9  1  0      
  9 10  2  0      
  9 11  1  0      
 11 12  1  0      
  6 12  1  0      
 12 13  2  0      
  2 13  1  0      
M  END
>  <Bioactivity>
Extracted from Aesculushippocastanumlinn;Suitability:Ethanol and dilute alkali;Store the product in sealed,cool and dry condition

>  <CAS>
305-01-1

>  <Col>
9

>  <Formula>
C9H6O4

>  <ID>
T2798

>  <Index>
318

>  <MOLENAME>
Esculetin

>  <MolWt>
178.14

>  <Pathways>
Others

>  <Plate>
PLATE 004

>  <QR code>
1151476779

>  <Receptor>
Others

>  <Reference>
1. Cho JH, et al. Int J Oncol. 2015 Jan;46(1):265-71.

>  <Row>
H

>  <SMILES>
OC1=C(O)C=C2C=CC(=O)OC2=C1

>  <Target>
Others

>  <Weight>
10.3mg

$$$$
Lab-1.sdf
  ChemDraw05232018482D

 20 21  0  0  0  0  0  0  0  0999 V2000
    1.4289    0.0000    0.0000 O   0  0  0  0  0  0  0  0  0  0  0  0
    1.4289    0.0000    0.0000 C   0  0  0  0  0  0  0  0  0  0  0  0
    2.1434    0.0000    0.0000 C   0  0  0  0  0  0  0  0  0  0  0  0
    2.1434    0.0000    0.0000 C   0  0  0  0  0  0  0  0  0  0  0  0
    1.4289    0.0000    0.0000 C   0  0  0  0  0  0  0  0  0  0  0  0
    1.4289    0.0000    0.0000 C   0  0  0  0  0  0  0  0  0  0  0  0
    0.7144    0.0000    0.0000 C   0  0  0  0  0  0  0  0  0  0  0  0
    0.7144    0.0000    0.0000 C   0  0  0  0  0  0  0  0  0  0  0  0
    1.4289    0.0000    0.0000 O   0  0  0  0  0  0  0  0  0  0  0  0
   -0.0001    0.0000    0.0000 C   0  0  0  0  0  0  0  0  0  0  0  0
   -0.0001    0.0000    0.0000 C   0  0  0  0  0  0  0  0  0  0  0  0
    0.7144    0.0000    0.0000 O   0  0  0  0  0  0  0  0  0  0  0  0
   -0.7144    0.0000    0.0000 C   0  0  0  0  0  0  0  0  0  0  0  0
   -1.4289    0.0000    0.0000 C   0  0  0  0  0  0  0  0  0  0  0  0
   -2.1434    0.0000    0.0000 O   0  0  0  0  0  0  0  0  0  0  0  0
   -1.4289    0.0000    0.0000 C   0  0  0  0  0  0  0  0  0  0  0  0
   -0.7144    0.0000    0.0000 C   0  0  0  0  0  0  0  0  0  0  0  0
   -0.7144    0.0000    0.0000 O   0  0  0  0  0  0  0  0  0  0  0  0
    0.7144    0.0000    0.0000 C   0  0  0  0  0  0  0  0  0  0  0  0
    0.7144    0.0000    0.0000 C   0  0  0  0  0  0  0  0  0  0  0  0
  1  2  1  0      
  2  3  2  0      
  3  4  1  0      
  4  5  2  0      
  5  6  1  0      
  6  7  1  0      
  7  8  1  0      
  8  9  2  0      
  8 10  1  0      
 10 11  2  0      
 11 12  1  0      
 11 13  1  0      
 13 14  2  0      
 14 15  1  0      
 14 16  1  0      
 16 17  2  0      
 10 17  1  0      
 17 18  1  0      
  5 19  1  0      
 19 20  2  0      
  2 20  1  0      
M  END
>  <Bioactivity>
Phloretin is a dihydrochalcone, a type of natural phenols. It can be found in apple tree leaves and the Manchurian apricot.

>  <CAS>
60-82-2

>  <Col>
10

>  <Formula>
C15H14O5

>  <ID>
T2924

>  <Index>
319

>  <MOLENAME>
Phloretin

>  <MolWt>
274.28

>  <Pathways>
Membrane Transporter/Ion Channel

>  <Plate>
PLATE 004

>  <QR code>
1151476780

>  <Receptor>
SGLT1; SGLT2

>  <Reference>
1. Chan SS, et al. Am J Physiol, 1962, 203, 975-979.

>  <Row>
H

>  <SMILES>
OC1=CC=C(CCC(=O)C2=C(O)C=C(O)C=C2O)C=C1

>  <Target>
SGLT inhibitor

>  <Weight>
9.8mg

$$$$
Lab-1.sdf
  ChemDraw05232018482D

 19 22  0  0  0  0  0  0  0  0999 V2000
    0.1902    0.0000    0.0000 C   0  0  0  0  0  0  0  0  0  0  0  0
   -0.6167    0.0000    0.0000 C   0  0  0  0  0  0  0  0  0  0  0  0
   -0.9523    0.0000    0.0000 C   0  0  0  0  0  0  0  0  0  0  0  0
   -1.7727    0.0000    0.0000 N   0  0  0  0  0  0  0  0  0  0  0  0
   -1.9443    0.0000    0.0000 C   0  0  0  0  0  0  0  0  0  0  0  0
   -2.6587    0.0000    0.0000 C   0  0  0  0  0  0  0  0  0  0  0  0
   -2.6587    0.0000    0.0000 C   0  0  0  0  0  0  0  0  0  0  0  0
   -1.9443    0.0000    0.0000 C   0  0  0  0  0  0  0  0  0  0  0  0
   -1.2299    0.0000    0.0000 C   0  0  0  0  0  0  0  0  0  0  0  0
   -1.2299    0.0000    0.0000 C   0  0  0  0  0  0  0  0  0  0  0  0
    0.4451    0.0000    0.0000 C   0  0  0  0  0  0  0  0  0  0  0  0
   -0.0398    0.0000    0.0000 C   0  0  0  0  0  0  0  0  0  0  0  0
    0.4451    0.0000    0.0000 N   0  0  0  0  0  0  0  0  0  0  0  0
    1.2297    0.0000    0.0000 C   0  0  0  0  0  0  0  0  0  0  0  0
    1.9442    0.0000    0.0000 C   0  0  0  0  0  0  0  0  0  0  0  0
    2.6587    0.0000    0.0000 C   0  0  0  0  0  0  0  0  0  0  0  0
    2.6587    0.0000    0.0000 C   0  0  0  0  0  0  0  0  0  0  0  0
    1.9442    0.0000    0.0000 C   0  0  0  0  0  0  0  0  0  0  0  0
    1.2297    0.0000    0.0000 C   0  0  0  0  0  0  0  0  0  0  0  0
  1  2  1  0      
  2  3  2  0      
  3  4  1  0      
  4  5  1  0      
  5  6  2  0      
  6  7  1  0      
  7  8  2  0      
  8  9  1  0      
  9 10  2  0      
  2 10  1  0      
  5 10  1  0      
  1 11  1  0      
 11 12  2  0      
 12 13  1  0      
 13 14  1  0      
 14 15  2  0      
 15 16  1  0      
 16 17  2  0      
 17 18  1  0      
 18 19  2  0      
 11 19  1  0      
 14 19  1  0      
M  END
>  <Bioactivity>
DIM (3,3'-diindolylmethane), a small molecule compound, is a proposed Y preventive agent.

>  <CAS>
1968-05-4

>  <Col>
11

>  <Formula>
C17H14N2

>  <ID>
T2991

>  <Index>
320

>  <MOLENAME>
3,3'-Diindolylmethane

>  <MolWt>
246.31

>  <Pathways>
Apoptosis

>  <Plate>
PLATE 004

>  <QR code>
1151476781

>  <Receptor>
Apoptosis inducer

>  <Reference>
1. Prabodh K, et al. Mol Pharmacol 78:297-309, 2010

>  <Row>
H

>  <SMILES>
C(C1=CNC2=CC=CC=C12)C1=CNC2=CC=CC=C12

>  <Target>
Apoptosis inducer

>  <Weight>
10.3mg

$$$$
Lab-1.sdf
  ChemDraw05232018482D

 23 25  0  0  0  0  0  0  0  0999 V2000
   -1.0717    0.0000    0.0000 O   0  0  0  0  0  0  0  0  0  0  0  0
   -0.3572    0.0000    0.0000 C   0  0  0  0  0  0  0  0  0  0  0  0
   -0.3572    0.0000    0.0000 C   0  0  0  0  0  0  0  0  0  0  0  0
    0.3572    0.0000    0.0000 O   0  0  0  0  0  0  0  0  0  0  0  0
    1.0717    0.0000    0.0000 C   0  0  0  0  0  0  0  0  0  0  0  0
    1.7862    0.0000    0.0000 C   0  0  0  0  0  0  0  0  0  0  0  0
    2.5007    0.0000    0.0000 C   0  0  0  0  0  0  0  0  0  0  0  0
    3.2151    0.0000    0.0000 O   0  0  0  0  0  0  0  0  0  0  0  0
    2.5007    0.0000    0.0000 C   0  0  0  0  0  0  0  0  0  0  0  0
    1.7862    0.0000    0.0000 C   0  0  0  0  0  0  0  0  0  0  0  0
    1.7862    0.0000    0.0000 O   0  0  0  0  0  0  0  0  0  0  0  0
    1.0717    0.0000    0.0000 C   0  0  0  0  0  0  0  0  0  0  0  0
    0.3572    0.0000    0.0000 C   0  0  0  0  0  0  0  0  0  0  0  0
    0.3572    0.0000    0.0000 O   0  0  0  0  0  0  0  0  0  0  0  0
   -1.0717    0.0000    0.0000 C   0  0  0  0  0  0  0  0  0  0  0  0
   -1.7862    0.0000    0.0000 C   0  0  0  0  0  0  0  0  0  0  0  0
   -2.5006    0.0000    0.0000 C   0  0  0  0  0  0  0  0  0  0  0  0
   -3.2151    0.0000    0.0000 O   0  0  0  0  0  0  0  0  0  0  0  0
   -2.5006    0.0000    0.0000 C   0  0  0  0  0  0  0  0  0  0  0  0
   -3.2151    0.0000    0.0000 O   0  0  0  0  0  0  0  0  0  0  0  0
   -1.7862    0.0000    0.0000 C   0  0  0  0  0  0  0  0  0  0  0  0
   -1.7862    0.0000    0.0000 O   0  0  0  0  0  0  0  0  0  0  0  0
   -1.0717    0.0000    0.0000 C   0  0  0  0  0  0  0  0  0  0  0  0
  1  2  1  0      
  2  3  1  0      
  3  4  1  0      
  4  5  1  0      
  5  6  2  0      
  6  7  1  0      
  7  8  1  0      
  7  9  2  0      
  9 10  1  0      
 10 11  1  0      
 10 12  2  0      
  5 12  1  0      
 12 13  1  0      
  2 13  1  0      
 13 14  2  0      
  3 15  1  0      
 15 16  2  0      
 16 17  1  0      
 17 18  1  0      
 17 19  2  0      
 19 20  1  0      
 19 21  1  0      
 21 22  1  0      
 21 23  2  0      
 15 23  1  0      
M  END
>  <Bioactivity>
Dihydromyricetin (Ampelopsin, Ampeloptin) is a natural antioxidant flavonoid from Ampelopsis grossedentata.

>  <CAS>
27200-12-0

>  <Col>
2

>  <Formula>
C15H12O8

>  <ID>
T2998

>  <Index>
321

>  <MOLENAME>
Dihydromyricetin

>  <MolWt>
320.25

>  <Pathways>
Neuroscience

>  <Plate>
PLATE 005

>  <QR code>
1151479937

>  <Receptor>
GABAA receptor

>  <Reference>
1. Zhang YS, et al. Yao Xue Xue Bao, 2003, 38(4), 241-244.

>  <Row>
A

>  <SMILES>
OC1C(OC2=CC(O)=CC(O)=C2C1=O)C1=CC(O)=C(O)C(O)=C1

>  <Target>
GABAR agonist

>  <Weight>
10.2mg

$$$$
Lab-1.sdf
  ChemDraw05232018482D

 21 23  0  0  0  0  0  0  0  0999 V2000
   -2.1434    0.0000    0.0000 O   0  0  0  0  0  0  0  0  0  0  0  0
   -2.1434    0.0000    0.0000 C   0  0  0  0  0  0  0  0  0  0  0  0
   -2.8579    0.0000    0.0000 O   0  0  0  0  0  0  0  0  0  0  0  0
   -1.4289    0.0000    0.0000 C   0  0  0  0  0  0  0  0  0  0  0  0
   -1.4289    0.0000    0.0000 C   0  0  0  0  0  0  0  0  0  0  0  0
   -0.7145    0.0000    0.0000 C   0  0  0  0  0  0  0  0  0  0  0  0
   -0.7145    0.0000    0.0000 O   0  0  0  0  0  0  0  0  0  0  0  0
   -0.0000    0.0000    0.0000 C   0  0  0  0  0  0  0  0  0  0  0  0
    0.7145    0.0000    0.0000 C   0  0  0  0  0  0  0  0  0  0  0  0
    0.7145    0.0000    0.0000 O   0  0  0  0  0  0  0  0  0  0  0  0
    1.4289    0.0000    0.0000 C   0  0  0  0  0  0  0  0  0  0  0  0
    1.4289    0.0000    0.0000 C   0  0  0  0  0  0  0  0  0  0  0  0
    2.1434    0.0000    0.0000 C   0  0  0  0  0  0  0  0  0  0  0  0
    2.8579    0.0000    0.0000 C   0  0  0  0  0  0  0  0  0  0  0  0
    2.8579    0.0000    0.0000 C   0  0  0  0  0  0  0  0  0  0  0  0
    2.1434    0.0000    0.0000 C   0  0  0  0  0  0  0  0  0  0  0  0
    2.1434    0.0000    0.0000 O   0  0  0  0  0  0  0  0  0  0  0  0
    0.7145    0.0000    0.0000 C   0  0  0  0  0  0  0  0  0  0  0  0
    0.7145    0.0000    0.0000 O   0  0  0  0  0  0  0  0  0  0  0  0
   -0.0000    0.0000    0.0000 C   0  0  0  0  0  0  0  0  0  0  0  0
   -0.7145    0.0000    0.0000 C   0  0  0  0  0  0  0  0  0  0  0  0
  1  2  1  0      
  2  3  2  0      
  2  4  1  0      
  4  5  2  0      
  5  6  1  0      
  6  7  1  0      
  6  8  2  0      
  8  9  1  0      
  9 10  2  0      
  9 11  1  0      
 11 12  2  0      
 12 13  1  0      
 13 14  2  0      
 14 15  1  0      
 15 16  2  0      
 11 16  1  0      
 16 17  1  0      
 12 18  1  0      
 18 19  2  0      
 18 20  1  0      
  8 20  1  0      
 20 21  2  0      
  4 21  1  0      
M  END
>  <Bioactivity>
Rhein is an anthraquinone compound enriched in the fresh rhizome of Rheum coreanum Nakai, showing anti-inflammation and antitumor activities. Extracted from Polygonaceae Rheum officinale;Suitability:P
yridine,sodium bicarbonate;Store the product in sealed,cool and dry condition

>  <CAS>
478-43-3

>  <Col>
3

>  <Formula>
C15H8O6

>  <ID>
T2997

>  <Index>
322

>  <MOLENAME>
Rheic Acid

>  <MolWt>
284.22

>  <Pathways>
Others

>  <Plate>
PLATE 005

>  <QR code>
1151479936

>  <Receptor>
Others

>  <Reference>
1. Martel-Pelletier J, et al. J Rheumatol, 1998, 25(4), 753-762.

>  <Row>
A

>  <SMILES>
OC(=O)C1=CC(O)=C2C(=O)C3=C(C=CC=C3O)C(=O)C2=C1

>  <Target>
Others

>  <Weight>
10.2mg

$$$$
Lab-1.sdf
  ChemDraw05232018482D

 20 21  0  0  0  0  0  0  0  0999 V2000
    0.3572    0.0000    0.0000 O   0  0  0  0  0  0  0  0  0  0  0  0
    0.3572    0.0000    0.0000 C   0  0  0  0  0  0  0  0  0  0  0  0
    1.0716    0.0000    0.0000 C   0  0  0  0  0  0  0  0  0  0  0  0
    1.7861    0.0000    0.0000 C   0  0  0  0  0  0  0  0  0  0  0  0
    1.7861    0.0000    0.0000 C   0  0  0  0  0  0  0  0  0  0  0  0
    2.5006    0.0000    0.0000 C   0  0  0  0  0  0  0  0  0  0  0  0
    1.0716    0.0000    0.0000 C   0  0  0  0  0  0  0  0  0  0  0  0
    0.3572    0.0000    0.0000 C   0  0  0  0  0  0  0  0  0  0  0  0
   -0.3572    0.0000    0.0000 C   0  0  0  0  0  0  0  0  0  0  0  0
   -0.3572    0.0000    0.0000 C   0  0  0  0  0  0  0  0  0  0  0  0
    0.3572    0.0000    0.0000 C   0  0  0  0  0  0  0  0  0  0  0  0
    1.0716    0.0000    0.0000 C   0  0  0  0  0  0  0  0  0  0  0  0
    1.7861    0.0000    0.0000 O   0  0  0  0  0  0  0  0  0  0  0  0
    1.0716    0.0000    0.0000 C   0  0  0  0  0  0  0  0  0  0  0  0
    0.3572    0.0000    0.0000 C   0  0  0  0  0  0  0  0  0  0  0  0
   -0.3572    0.0000    0.0000 C   0  0  0  0  0  0  0  0  0  0  0  0
   -1.0718    0.0000    0.0000 C   0  0  0  0  0  0  0  0  0  0  0  0
   -1.7861    0.0000    0.0000 C   0  0  0  0  0  0  0  0  0  0  0  0
   -2.5006    0.0000    0.0000 C   0  0  0  0  0  0  0  0  0  0  0  0
   -0.3572    0.0000    0.0000 C   0  0  0  0  0  0  0  0  0  0  0  0
  1  2  1  0      
  2  3  2  0      
  3  4  1  0      
  4  5  1  0      
  5  6  2  0      
  3  7  1  0      
  7  8  2  0      
  8  9  1  0      
  9 10  2  0      
  2 10  1  0      
  8 11  1  0      
 11 12  2  0      
 12 13  1  0      
 12 14  1  0      
 14 15  2  0      
 15 16  1  0      
 16 17  1  0      
 17 18  1  0      
 18 19  2  0      
 16 20  2  0      
 11 20  1  0      
M  END
>  <Bioactivity>
Honokiol is the active principle of magnolia extract that inhibits Akt-phosphorylation and promotes ERK1/2 phosphorylation.

>  <CAS>
35354-74-6

>  <Col>
4

>  <Formula>
C18H18O2

>  <ID>
T3001

>  <Index>
323

>  <MOLENAME>
Honokiol

>  <MolWt>
266.32

>  <Pathways>
PI3K/Akt/mTOR Signaling; MAPK Signaling

>  <Plate>
PLATE 005

>  <QR code>
1151479935

>  <Receptor>
Akt-phosphorylation; MEK

>  <Reference>
1. Seo MS, et al. Toxicol Appl Pharmacol. 2015 Apr 15;284(2):113-24.

>  <Row>
A

>  <SMILES>
OC1=C(CC=C)C=C(C=C1)C1=C(O)C=CC(CC=C)=C1

>  <Target>
Akt inhibitor; MEK inhibitor

>  <Weight>
10.1mg

$$$$
Lab-1.sdf
  ChemDraw05232018482D

 20 21  0  0  0  0  0  0  0  0999 V2000
   -1.7861    0.0000    0.0000 O   0  0  0  0  0  0  0  0  0  0  0  0
   -1.7861    0.0000    0.0000 C   0  0  0  0  0  0  0  0  0  0  0  0
   -1.0718    0.0000    0.0000 C   0  0  0  0  0  0  0  0  0  0  0  0
   -1.0718    0.0000    0.0000 C   0  0  0  0  0  0  0  0  0  0  0  0
   -1.7861    0.0000    0.0000 C   0  0  0  0  0  0  0  0  0  0  0  0
   -1.7861    0.0000    0.0000 C   0  0  0  0  0  0  0  0  0  0  0  0
   -2.5006    0.0000    0.0000 C   0  0  0  0  0  0  0  0  0  0  0  0
   -2.5006    0.0000    0.0000 C   0  0  0  0  0  0  0  0  0  0  0  0
   -2.5006    0.0000    0.0000 C   0  0  0  0  0  0  0  0  0  0  0  0
   -2.5006    0.0000    0.0000 C   0  0  0  0  0  0  0  0  0  0  0  0
   -0.3573    0.0000    0.0000 C   0  0  0  0  0  0  0  0  0  0  0  0
   -0.3573    0.0000    0.0000 C   0  0  0  0  0  0  0  0  0  0  0  0
   -1.0718    0.0000    0.0000 O   0  0  0  0  0  0  0  0  0  0  0  0
    0.3572    0.0000    0.0000 C   0  0  0  0  0  0  0  0  0  0  0  0
    1.0717    0.0000    0.0000 C   0  0  0  0  0  0  0  0  0  0  0  0
    1.0717    0.0000    0.0000 C   0  0  0  0  0  0  0  0  0  0  0  0
    1.7861    0.0000    0.0000 C   0  0  0  0  0  0  0  0  0  0  0  0
    1.7861    0.0000    0.0000 C   0  0  0  0  0  0  0  0  0  0  0  0
    2.5006    0.0000    0.0000 C   0  0  0  0  0  0  0  0  0  0  0  0
    0.3572    0.0000    0.0000 C   0  0  0  0  0  0  0  0  0  0  0  0
  1  2  1  0      
  2  3  2  0      
  3  4  1  0      
  4  5  2  0      
  5  6  1  0      
  6  7  1  0      
  7  8  2  0      
  5  9  1  0      
  9 10  2  0      
  2 10  1  0      
  3 11  1  0      
 11 12  2  0      
 12 13  1  0      
 12 14  1  0      
 14 15  2  0      
 15 16  1  0      
 16 17  1  0      
 17 18  1  0      
 18 19  2  0      
 16 20  2  0      
 11 20  1  0      
M  END
>  <Bioactivity>
Magnolol is isomeric to honokiol (sc-202653). Magnolol is an anxiolytic,anti-thrombotic and antibacterial. . Inhibitor of nitric oxide (NO) and TNF-¦Á production in LPS-activated macrophages by the su
ppression of inducible nitric oxide synthase(iNOS; NOS

>  <CAS>
528-43-8

>  <Col>
5

>  <Formula>
C18H18O2

>  <ID>
T3000

>  <Index>
324

>  <MOLENAME>
Magnolol

>  <MolWt>
266.32

>  <Pathways>
Immunology/Inflammation

>  <Plate>
PLATE 005

>  <QR code>
1151479934

>  <Receptor>
NF-¦ÊB; p53; PPAR¦Ã

>  <Reference>
1. Li M, et al. Y Sci. 2015 Oct;106(10):1341-50. 

>  <Row>
A

>  <SMILES>
OC1=C(C=C(CC=C)C=C1)C1=C(O)C=CC(CC=C)=C1

>  <Target>
NF-¦ÊB inhibitor; p53 activator; PPAR inhibitor

>  <Weight>
10.3mg

$$$$
Lab-1.sdf
  ChemDraw05232018482D

 20 21  0  0  0  0  0  0  0  0999 V2000
   -1.0717    0.0000    0.0000 O   0  0  0  0  0  0  0  0  0  0  0  0
   -0.3573    0.0000    0.0000 C   0  0  0  0  0  0  0  0  0  0  0  0
   -0.3573    0.0000    0.0000 C   0  0  0  0  0  0  0  0  0  0  0  0
    0.3572    0.0000    0.0000 O   0  0  0  0  0  0  0  0  0  0  0  0
    0.3572    0.0000    0.0000 C   0  0  0  0  0  0  0  0  0  0  0  0
    1.0717    0.0000    0.0000 O   0  0  0  0  0  0  0  0  0  0  0  0
    1.0717    0.0000    0.0000 C   0  0  0  0  0  0  0  0  0  0  0  0
    1.7861    0.0000    0.0000 C   0  0  0  0  0  0  0  0  0  0  0  0
    1.7861    0.0000    0.0000 C   0  0  0  0  0  0  0  0  0  0  0  0
    1.0717    0.0000    0.0000 C   0  0  0  0  0  0  0  0  0  0  0  0
    1.0717    0.0000    0.0000 C   0  0  0  0  0  0  0  0  0  0  0  0
    1.7861    0.0000    0.0000 O   0  0  0  0  0  0  0  0  0  0  0  0
    0.3572    0.0000    0.0000 C   0  0  0  0  0  0  0  0  0  0  0  0
    0.3572    0.0000    0.0000 C   0  0  0  0  0  0  0  0  0  0  0  0
   -0.3573    0.0000    0.0000 C   0  0  0  0  0  0  0  0  0  0  0  0
   -0.3573    0.0000    0.0000 O   0  0  0  0  0  0  0  0  0  0  0  0
   -1.0717    0.0000    0.0000 C   0  0  0  0  0  0  0  0  0  0  0  0
   -1.7861    0.0000    0.0000 O   0  0  0  0  0  0  0  0  0  0  0  0
   -1.0717    0.0000    0.0000 C   0  0  0  0  0  0  0  0  0  0  0  0
   -1.7861    0.0000    0.0000 O   0  0  0  0  0  0  0  0  0  0  0  0
  1  2  1  0      
  2  3  1  0      
  3  4  1  0      
  4  5  1  0      
  5  6  1  0      
  6  7  1  0      
  7  8  2  0      
  8  9  1  0      
  9 10  2  0      
 10 11  1  0      
 11 12  1  0      
 10 13  1  0      
 13 14  2  0      
  7 14  1  0      
  5 15  1  0      
 15 16  1  0      
 15 17  1  0      
 17 18  1  0      
 17 19  1  0      
  3 19  1  0      
 19 20  1  0      
M  END
>  <Bioactivity>
Gastrodin, an anti-inflammatory polyphenol extracted from Chinese natural herbal Gastrodia elata Blume., benefits neurodegenerative diseases. Extracted from Orchids Gastrodia; Suitability:Water,methan
ol,ethanol;Store the product in sealed,cool and dry condition

>  <CAS>
62499-27-8

>  <Col>
6

>  <Formula>
C13H18O7

>  <ID>
T2999

>  <Index>
325

>  <MOLENAME>
Gastrodin 

>  <MolWt>
286.28

>  <Pathways>
Others

>  <Plate>
PLATE 005

>  <QR code>
1151479933

>  <Receptor>
Others

>  <Reference>
1. Wang X, Tan Y, Zhang F. Neurosci Lett. 2015 May 6;594:40-5. 

>  <Row>
A

>  <SMILES>
OCC1OC(OC2=CC=C(CO)C=C2)C(O)C(O)C1O

>  <Target>
Others

>  <Weight>
10mg

$$$$
Lab-1.sdf
  ChemDraw05232018482D

 21 23  0  0  0  0  0  0  0  0999 V2000
    3.4925    0.0000    0.0000 O   0  0  0  0  0  0  0  0  0  0  0  0
    2.7781    0.0000    0.0000 C   0  0  0  0  0  0  0  0  0  0  0  0
    2.0636    0.0000    0.0000 C   0  0  0  0  0  0  0  0  0  0  0  0
    1.3492    0.0000    0.0000 C   0  0  0  0  0  0  0  0  0  0  0  0
    0.6347    0.0000    0.0000 C   0  0  0  0  0  0  0  0  0  0  0  0
   -0.0797    0.0000    0.0000 C   0  0  0  0  0  0  0  0  0  0  0  0
   -0.7941    0.0000    0.0000 C   0  0  0  0  0  0  0  0  0  0  0  0
   -1.5086    0.0000    0.0000 C   0  0  0  0  0  0  0  0  0  0  0  0
   -2.2231    0.0000    0.0000 C   0  0  0  0  0  0  0  0  0  0  0  0
   -2.2231    0.0000    0.0000 C   0  0  0  0  0  0  0  0  0  0  0  0
   -3.0077    0.0000    0.0000 O   0  0  0  0  0  0  0  0  0  0  0  0
   -3.4925    0.0000    0.0000 C   0  0  0  0  0  0  0  0  0  0  0  0
   -3.0077    0.0000    0.0000 O   0  0  0  0  0  0  0  0  0  0  0  0
   -1.5086    0.0000    0.0000 C   0  0  0  0  0  0  0  0  0  0  0  0
   -0.7941    0.0000    0.0000 C   0  0  0  0  0  0  0  0  0  0  0  0
    2.7781    0.0000    0.0000 N   0  0  0  0  0  0  0  0  0  0  0  0
    3.4925    0.0000    0.0000 C   0  0  0  0  0  0  0  0  0  0  0  0
    3.4925    0.0000    0.0000 C   0  0  0  0  0  0  0  0  0  0  0  0
    2.7781    0.0000    0.0000 C   0  0  0  0  0  0  0  0  0  0  0  0
    2.0636    0.0000    0.0000 C   0  0  0  0  0  0  0  0  0  0  0  0
    2.0636    0.0000    0.0000 C   0  0  0  0  0  0  0  0  0  0  0  0
  1  2  2  0      
  3  2  1  4      
  3  4  2  0      
  5  4  1  4      
  5  6  2  0      
  6  7  1  0      
  7  8  2  0      
  8  9  1  0      
  9 10  2  0      
 10 11  1  0      
 11 12  1  0      
 12 13  1  0      
  9 13  1  0      
 10 14  1  0      
 14 15  2  0      
  7 15  1  0      
  2 16  1  0      
 16 17  1  0      
 17 18  1  0      
 18 19  1  0      
 19 20  1  0      
 20 21  1  0      
 16 21  1  0      
M  END
>  <Bioactivity>
Piperine (1-Piperoylpiperidine) is the alkaloid responsible for the pungency of black pepper and long pepper, which has also been used in some forms of traditional medicine and as an insecticide.

>  <CAS>
94-62-2

>  <Col>
7

>  <Formula>
C17H19NO3

>  <ID>
T3002

>  <Index>
326

>  <MOLENAME>
Piperine

>  <MolWt>
285.35

>  <Pathways>
Metabolism

>  <Plate>
PLATE 005

>  <QR code>
1151479932

>  <Receptor>
CYP3A4

>  <Reference>
1. Bhardwaj RK, et al. J Pharmacol Exp Ther, 2002, 302(2), 645-650.

>  <Row>
A

>  <SMILES>
O=C(C=CC=CC1=CC2=C(OCO2)C=C1)N1CCCCC1

>  <Target>
CYP inhibitor

>  <Weight>
10.1mg

$$$$
Lab-1.sdf
  ChemDraw05232018482D

 27 28  0  0  0  0  0  0  0  0999 V2000
    4.2867    0.0000    0.0000 C   0  0  0  0  0  0  0  0  0  0  0  0
    3.5722    0.0000    0.0000 O   0  0  0  0  0  0  0  0  0  0  0  0
    3.5722    0.0000    0.0000 C   0  0  0  0  0  0  0  0  0  0  0  0
    4.2867    0.0000    0.0000 C   0  0  0  0  0  0  0  0  0  0  0  0
    5.0012    0.0000    0.0000 O   0  0  0  0  0  0  0  0  0  0  0  0
    4.2867    0.0000    0.0000 C   0  0  0  0  0  0  0  0  0  0  0  0
    3.5722    0.0000    0.0000 C   0  0  0  0  0  0  0  0  0  0  0  0
    2.8578    0.0000    0.0000 C   0  0  0  0  0  0  0  0  0  0  0  0
    2.1433    0.0000    0.0000 C   0  0  0  0  0  0  0  0  0  0  0  0
    1.4289    0.0000    0.0000 C   0  0  0  0  0  0  0  0  0  0  0  0
    0.7144    0.0000    0.0000 C   0  0  0  0  0  0  0  0  0  0  0  0
    0.7144    0.0000    0.0000 O   0  0  0  0  0  0  0  0  0  0  0  0
   -0.0000    0.0000    0.0000 C   0  0  0  0  0  0  0  0  0  0  0  0
   -0.7145    0.0000    0.0000 C   0  0  0  0  0  0  0  0  0  0  0  0
   -0.7145    0.0000    0.0000 O   0  0  0  0  0  0  0  0  0  0  0  0
   -1.4290    0.0000    0.0000 C   0  0  0  0  0  0  0  0  0  0  0  0
   -2.1433    0.0000    0.0000 C   0  0  0  0  0  0  0  0  0  0  0  0
   -2.8578    0.0000    0.0000 C   0  0  0  0  0  0  0  0  0  0  0  0
   -3.5723    0.0000    0.0000 C   0  0  0  0  0  0  0  0  0  0  0  0
   -4.2868    0.0000    0.0000 C   0  0  0  0  0  0  0  0  0  0  0  0
   -5.0012    0.0000    0.0000 O   0  0  0  0  0  0  0  0  0  0  0  0
   -5.0012    0.0000    0.0000 C   0  0  0  0  0  0  0  0  0  0  0  0
   -4.2868    0.0000    0.0000 C   0  0  0  0  0  0  0  0  0  0  0  0
   -5.0012    0.0000    0.0000 O   0  0  0  0  0  0  0  0  0  0  0  0
   -3.5723    0.0000    0.0000 C   0  0  0  0  0  0  0  0  0  0  0  0
   -2.8578    0.0000    0.0000 C   0  0  0  0  0  0  0  0  0  0  0  0
    2.8578    0.0000    0.0000 C   0  0  0  0  0  0  0  0  0  0  0  0
  1  2  1  0      
  2  3  1  0      
  3  4  2  0      
  4  5  1  0      
  4  6  1  0      
  6  7  2  0      
  7  8  1  0      
  9  8  1  4      
  9 10  2  0      
 10 11  1  0      
 11 12  2  0      
 11 13  1  0      
 13 14  1  0      
 14 15  2  0      
 16 14  1  4      
 16 17  2  0      
 17 18  1  0      
 18 19  2  0      
 19 20  1  0      
 20 21  1  0      
 21 22  1  0      
 20 23  2  0      
 23 24  1  0      
 23 25  1  0      
 25 26  2  0      
 18 26  1  0      
  8 27  2  0      
  3 27  1  0      
M  END
>  <Bioactivity>
Curcumin is a natural phenolic compound with impressive antioxidant properties. Curcumin is recently proved to exert its chemopreventive effects partly through the activation of nuclear factor (erythr
oid-2 related) factor 2 (Nrf2).

>  <CAS>
458-37-7

>  <Col>
8

>  <Formula>
C21H20O6

>  <ID>
T1516

>  <Index>
327

>  <MOLENAME>
Curcumin

>  <MolWt>
368.39

>  <Pathways>
Immunology/Inflammation

>  <Plate>
PLATE 005

>  <QR code>
1151479931

>  <Receptor>
KEAP1-Nrf2

>  <Reference>
1. Zanotto-Filho A, et al. Y Lett. 2015 Mar 28;358(2):220-31. 

>  <Row>
A

>  <SMILES>
COC1=C(O)C=CC(C=CC(=O)CC(=O)C=CC2=CC(OC)=C(O)C=C2)=C1

>  <Target>
NF-¦ÊB inhibitor

>  <Weight>
10.3mg

$$$$
Lab-1.sdf
  ChemDraw05232018482D

 18 20  0  0  0  0  0  0  0  0999 V2000
    1.2458    0.0000    0.0000 N   0  0  0  0  0  0  0  0  0  0  0  0
    1.2458    0.0000    0.0000 C   0  0  0  0  0  0  0  0  0  0  0  0
    1.9603    0.0000    0.0000 N   0  0  0  0  0  0  0  0  0  0  0  0
    1.9603    0.0000    0.0000 C   0  0  0  0  0  0  0  0  0  0  0  0
    1.2458    0.0000    0.0000 N   0  0  0  0  0  0  0  0  0  0  0  0
    0.5314    0.0000    0.0000 C   0  0  0  0  0  0  0  0  0  0  0  0
    0.5314    0.0000    0.0000 C   0  0  0  0  0  0  0  0  0  0  0  0
   -0.2533    0.0000    0.0000 N   0  0  0  0  0  0  0  0  0  0  0  0
   -0.7382    0.0000    0.0000 C   0  0  0  0  0  0  0  0  0  0  0  0
   -0.2533    0.0000    0.0000 N   0  0  0  0  0  0  0  0  0  0  0  0
   -0.5082    0.0000    0.0000 C   0  0  0  0  0  0  0  0  0  0  0  0
   -0.0233    0.0000    0.0000 O   0  0  0  0  0  0  0  0  0  0  0  0
   -0.5082    0.0000    0.0000 C   0  0  0  0  0  0  0  0  0  0  0  0
   -0.2533    0.0000    0.0000 C   0  0  0  0  0  0  0  0  0  0  0  0
    0.5537    0.0000    0.0000 O   0  0  0  0  0  0  0  0  0  0  0  0
   -1.2928    0.0000    0.0000 C   0  0  0  0  0  0  0  0  0  0  0  0
   -1.2928    0.0000    0.0000 C   0  0  0  0  0  0  0  0  0  0  0  0
   -1.9603    0.0000    0.0000 O   0  0  0  0  0  0  0  0  0  0  0  0
  1  2  1  0      
  2  3  2  0      
  3  4  1  0      
  4  5  2  0      
  5  6  1  0      
  6  7  2  0      
  2  7  1  0      
  7  8  1  0      
  8  9  2  0      
  9 10  1  0      
  6 10  1  0      
 10 11  1  0      
 11 12  1  0      
 12 13  1  0      
 13 14  1  0      
 14 15  1  0      
 13 16  1  0      
 16 17  1  0      
 11 17  1  0      
 17 18  1  0      
M  END
>  <Bioactivity>
Cordycepin is a purine nucleoside antimetabolite and antibiotic isolated from the fungus Cordyceps militaris with potential antineoplastic activity.  Extracted?from?Cordyceps;Store?the?product?in?seal
ed,?cool?and?dry?condition

>  <CAS>
73-03-0

>  <Col>
9

>  <Formula>
C10H13N5O3

>  <ID>
T2993

>  <Index>
328

>  <MOLENAME>
Cordycepin

>  <MolWt>
251.24

>  <Pathways>
Immunology/Inflammation

>  <Plate>
PLATE 005

>  <QR code>
1151479930

>  <Receptor>
TNF-alpha

>  <Reference>
1. Yang J, et al. Int J Immunopathol Pharmacol. 2015 Sep;28(3):296-307.

>  <Row>
A

>  <SMILES>
NC1=NC=NC2=C1N=CN2C1OC(CO)CC1O

>  <Target>
TNF-alpha inhibitor

>  <Weight>
10.4mg

$$$$
Lab-1.sdf
  ChemDraw05232018482D

 19 21  0  0  0  0  0  0  0  0999 V2000
   -2.8578    0.0000    0.0000 O   0  0  0  0  0  0  0  0  0  0  0  0
   -2.1433    0.0000    0.0000 C   0  0  0  0  0  0  0  0  0  0  0  0
   -2.1433    0.0000    0.0000 C   0  0  0  0  0  0  0  0  0  0  0  0
   -1.4290    0.0000    0.0000 C   0  0  0  0  0  0  0  0  0  0  0  0
   -1.4290    0.0000    0.0000 O   0  0  0  0  0  0  0  0  0  0  0  0
   -0.7145    0.0000    0.0000 C   0  0  0  0  0  0  0  0  0  0  0  0
   -0.0000    0.0000    0.0000 C   0  0  0  0  0  0  0  0  0  0  0  0
   -0.0000    0.0000    0.0000 O   0  0  0  0  0  0  0  0  0  0  0  0
    0.7145    0.0000    0.0000 C   0  0  0  0  0  0  0  0  0  0  0  0
    0.7145    0.0000    0.0000 C   0  0  0  0  0  0  0  0  0  0  0  0
   -0.0000    0.0000    0.0000 O   0  0  0  0  0  0  0  0  0  0  0  0
   -0.7145    0.0000    0.0000 C   0  0  0  0  0  0  0  0  0  0  0  0
   -1.4290    0.0000    0.0000 C   0  0  0  0  0  0  0  0  0  0  0  0
    1.4289    0.0000    0.0000 C   0  0  0  0  0  0  0  0  0  0  0  0
    2.1433    0.0000    0.0000 C   0  0  0  0  0  0  0  0  0  0  0  0
    2.8578    0.0000    0.0000 C   0  0  0  0  0  0  0  0  0  0  0  0
    2.8578    0.0000    0.0000 C   0  0  0  0  0  0  0  0  0  0  0  0
    2.1433    0.0000    0.0000 C   0  0  0  0  0  0  0  0  0  0  0  0
    1.4289    0.0000    0.0000 C   0  0  0  0  0  0  0  0  0  0  0  0
  1  2  1  0      
  2  3  2  0      
  3  4  1  0      
  4  5  1  0      
  4  6  2  0      
  6  7  1  0      
  7  8  2  0      
  7  9  1  0      
  9 10  1  0      
 10 11  1  0      
 11 12  1  0      
  6 12  1  0      
 12 13  2  0      
  2 13  1  0      
 10 14  1  0      
 14 15  2  0      
 15 16  1  0      
 16 17  2  0      
 17 18  1  0      
 18 19  2  0      
 14 19  1  0      
M  END
>  <Bioactivity>
Pinocembrin is a flavanone, a type of flavonoid. It is an antioxidant found in damiana, honey, fingerroot, and propolis.

>  <CAS>
480-39-7

>  <Col>
10

>  <Formula>
C15H12O4

>  <ID>
T2992

>  <Index>
329

>  <MOLENAME>
Pinocembrin

>  <MolWt>
256.25

>  <Pathways>
Immunology/Inflammation

>  <Plate>
PLATE 005

>  <QR code>
1151479929

>  <Receptor>
NF-¦ÊB

>  <Reference>
1. Saad MA, et al. Pharmacol Rep. 2015 Feb;67(1):115-22. 

>  <Row>
A

>  <SMILES>
OC1=CC(O)=C2C(=O)CC(OC2=C1)C1=CC=CC=C1

>  <Target>
NF-¦ÊB inhibitor

>  <Weight>
10.3mg

$$$$
Lab-1.sdf
  ChemDraw05232018482D

 19 21  0  0  0  0  0  0  0  0999 V2000
   -2.5006    0.0000    0.0000 C   0  0  0  0  0  0  0  0  0  0  0  0
   -1.7862    0.0000    0.0000 C   0  0  0  0  0  0  0  0  0  0  0  0
   -1.7862    0.0000    0.0000 C   0  0  0  0  0  0  0  0  0  0  0  0
   -1.0718    0.0000    0.0000 C   0  0  0  0  0  0  0  0  0  0  0  0
   -1.0718    0.0000    0.0000 O   0  0  0  0  0  0  0  0  0  0  0  0
   -0.3572    0.0000    0.0000 C   0  0  0  0  0  0  0  0  0  0  0  0
    0.3572    0.0000    0.0000 C   0  0  0  0  0  0  0  0  0  0  0  0
    0.3572    0.0000    0.0000 O   0  0  0  0  0  0  0  0  0  0  0  0
    1.0716    0.0000    0.0000 C   0  0  0  0  0  0  0  0  0  0  0  0
    1.7861    0.0000    0.0000 C   0  0  0  0  0  0  0  0  0  0  0  0
    1.7861    0.0000    0.0000 O   0  0  0  0  0  0  0  0  0  0  0  0
    2.5006    0.0000    0.0000 C   0  0  0  0  0  0  0  0  0  0  0  0
    2.5006    0.0000    0.0000 C   0  0  0  0  0  0  0  0  0  0  0  0
    1.7861    0.0000    0.0000 C   0  0  0  0  0  0  0  0  0  0  0  0
    1.0716    0.0000    0.0000 C   0  0  0  0  0  0  0  0  0  0  0  0
    0.3572    0.0000    0.0000 C   0  0  0  0  0  0  0  0  0  0  0  0
    0.3572    0.0000    0.0000 O   0  0  0  0  0  0  0  0  0  0  0  0
   -0.3572    0.0000    0.0000 C   0  0  0  0  0  0  0  0  0  0  0  0
   -1.0718    0.0000    0.0000 C   0  0  0  0  0  0  0  0  0  0  0  0
  1  2  1  0      
  2  3  2  0      
  3  4  1  0      
  4  5  1  0      
  4  6  2  0      
  6  7  1  0      
  7  8  2  0      
  7  9  1  0      
  9 10  2  0      
 10 11  1  0      
 10 12  1  0      
 12 13  2  0      
 13 14  1  0      
 14 15  2  0      
  9 15  1  0      
 15 16  1  0      
 16 17  2  0      
 16 18  1  0      
  6 18  1  0      
 18 19  2  0      
  2 19  1  0      
M  END
>  <Bioactivity>
Extracted from Rheum palmatum L.;Suitability:Boiling ethanol,benzene,chloroform,ether,acetic acid and acetone;Store the product in sealed,cool and dry condition

>  <CAS>
481-74-3

>  <Col>
11

>  <Formula>
C15H10O4

>  <ID>
T2995

>  <Index>
330

>  <MOLENAME>
Chrysophanic Acid

>  <MolWt>
254.24

>  <Pathways>
Tyrosine Kinase/Adaptors; PI3K/Akt/mTOR Signaling 

>  <Plate>
PLATE 005

>  <QR code>
1151479928

>  <Receptor>
EGFR; mTOR 

>  <Reference>
1. Lee MS, et al. PhytOthers Res, 2011, 25(6), 833-837.

>  <Row>
A

>  <SMILES>
CC1=CC(O)=C2C(=O)C3=C(O)C=CC=C3C(=O)C2=C1

>  <Target>
EGFR inhibitor; mTOR inhibitor

>  <Weight>
10.1mg

$$$$
Lab-1.sdf
  ChemDraw05232018482D

 20 21  0  0  0  0  0  0  0  0999 V2000
   -0.0000    0.0000    0.0000 C   0  0  0  0  0  0  0  0  0  0  0  0
    0.7145    0.0000    0.0000 O   0  0  0  0  0  0  0  0  0  0  0  0
    0.7145    0.0000    0.0000 C   0  0  0  0  0  0  0  0  0  0  0  0
    1.4290    0.0000    0.0000 C   0  0  0  0  0  0  0  0  0  0  0  0
    1.4290    0.0000    0.0000 C   0  0  0  0  0  0  0  0  0  0  0  0
    2.1434    0.0000    0.0000 O   0  0  0  0  0  0  0  0  0  0  0  0
    0.7145    0.0000    0.0000 C   0  0  0  0  0  0  0  0  0  0  0  0
   -0.0000    0.0000    0.0000 C   0  0  0  0  0  0  0  0  0  0  0  0
   -0.7145    0.0000    0.0000 O   0  0  0  0  0  0  0  0  0  0  0  0
   -0.0000    0.0000    0.0000 C   0  0  0  0  0  0  0  0  0  0  0  0
   -0.7145    0.0000    0.0000 C   0  0  0  0  0  0  0  0  0  0  0  0
   -1.4289    0.0000    0.0000 O   0  0  0  0  0  0  0  0  0  0  0  0
   -0.7145    0.0000    0.0000 C   0  0  0  0  0  0  0  0  0  0  0  0
   -1.4289    0.0000    0.0000 C   0  0  0  0  0  0  0  0  0  0  0  0
   -1.4289    0.0000    0.0000 C   0  0  0  0  0  0  0  0  0  0  0  0
   -2.1434    0.0000    0.0000 C   0  0  0  0  0  0  0  0  0  0  0  0
   -2.1434    0.0000    0.0000 C   0  0  0  0  0  0  0  0  0  0  0  0
   -1.4289    0.0000    0.0000 C   0  0  0  0  0  0  0  0  0  0  0  0
   -0.7145    0.0000    0.0000 C   0  0  0  0  0  0  0  0  0  0  0  0
   -0.7145    0.0000    0.0000 C   0  0  0  0  0  0  0  0  0  0  0  0
  1  2  1  0      
  2  3  1  0      
  3  4  2  0      
  4  5  1  0      
  5  6  1  0      
  5  7  2  0      
  7  8  1  0      
  8  9  1  0      
  8 10  2  0      
  3 10  1  0      
 10 11  1  0      
 11 12  2  0      
 13 11  1  4      
 13 14  2  0      
 14 15  1  0      
 15 16  2  0      
 16 17  1  0      
 17 18  2  0      
 18 19  1  0      
 19 20  2  0      
 15 20  1  0      
M  END
>  <Bioactivity>
Cardamomin (also known as cardamonin) is a chalconoid that has been isolated from several plants including Alpinia katsumadai and Alpinia conchigera. It has received growing attention from the scienti
fic community due to the expectations toward its benefits to human health.

>  <CAS>
19309-14-9

>  <Col>
2

>  <Formula>
C16H14O4

>  <ID>
T2994

>  <Index>
331

>  <MOLENAME>
Cardamoni

>  <MolWt>
270.28

>  <Pathways>
JAK/STAT Signaling

>  <Plate>
PLATE 005

>  <QR code>
1151479916

>  <Receptor>
STAT3

>  <Reference>
1. Wu N, et al. Tumour Biol. 2015 Jul 7.

>  <Row>
B

>  <SMILES>
COC1=CC(O)=CC(O)=C1C(=O)C=CC1=CC=CC=C1

>  <Target>
STAT inhibitor

>  <Weight>
10.1mg

$$$$
Lab-1.sdf
  ChemDraw05232018482D

 46 52  0  0  0  0  0  0  0  0999 V2000
    3.8970    0.0000    0.0000 C   0  0  0  0  0  0  0  0  0  0  0  0
    3.0886    0.0000    0.0000 O   0  0  0  0  0  0  0  0  0  0  0  0
    2.7301    0.0000    0.0000 C   0  0  0  0  0  0  0  0  0  0  0  0
    1.9044    0.0000    0.0000 C   0  0  0  0  0  0  0  0  0  0  0  0
    1.3639    0.0000    0.0000 O   0  0  0  0  0  0  0  0  0  0  0  0
    0.5927    0.0000    0.0000 C   0  0  0  0  0  0  0  0  0  0  0  0
    0.2677    0.0000    0.0000 C   0  0  0  0  0  0  0  0  0  0  0  0
   -0.5344    0.0000    0.0000 C   0  0  0  0  0  0  0  0  0  0  0  0
   -1.0778    0.0000    0.0000 C   0  0  0  0  0  0  0  0  0  0  0  0
   -1.7562    0.0000    0.0000 C   0  0  0  0  0  0  0  0  0  0  0  0
   -2.4326    0.0000    0.0000 C   0  0  0  0  0  0  0  0  0  0  0  0
   -3.1486    0.0000    0.0000 N   0  0  0  0  0  0  0  0  0  0  0  0
   -3.1344    0.0000    0.0000 C   0  0  0  0  0  0  0  0  0  0  0  0
   -3.8713    0.0000    0.0000 C   0  0  0  0  0  0  0  0  0  0  0  0
   -3.8970    0.0000    0.0000 C   0  0  0  0  0  0  0  0  0  0  0  0
   -3.2016    0.0000    0.0000 C   0  0  0  0  0  0  0  0  0  0  0  0
   -3.2644    0.0000    0.0000 C   0  0  0  0  0  0  0  0  0  0  0  0
   -2.5803    0.0000    0.0000 C   0  0  0  0  0  0  0  0  0  0  0  0
   -2.6520    0.0000    0.0000 O   0  0  0  0  0  0  0  0  0  0  0  0
   -3.3867    0.0000    0.0000 C   0  0  0  0  0  0  0  0  0  0  0  0
   -1.8174    0.0000    0.0000 C   0  0  0  0  0  0  0  0  0  0  0  0
   -1.0417    0.0000    0.0000 O   0  0  0  0  0  0  0  0  0  0  0  0
   -0.3740    0.0000    0.0000 C   0  0  0  0  0  0  0  0  0  0  0  0
    0.4779    0.0000    0.0000 C   0  0  0  0  0  0  0  0  0  0  0  0
    1.1292    0.0000    0.0000 C   0  0  0  0  0  0  0  0  0  0  0  0
    1.4438    0.0000    0.0000 C   0  0  0  0  0  0  0  0  0  0  0  0
    2.0087    0.0000    0.0000 C   0  0  0  0  0  0  0  0  0  0  0  0
    2.8374    0.0000    0.0000 C   0  0  0  0  0  0  0  0  0  0  0  0
    3.2000    0.0000    0.0000 C   0  0  0  0  0  0  0  0  0  0  0  0
    1.5822    0.0000    0.0000 C   0  0  0  0  0  0  0  0  0  0  0  0
    1.9069    0.0000    0.0000 N   0  0  0  0  0  0  0  0  0  0  0  0
    2.5175    0.0000    0.0000 C   0  0  0  0  0  0  0  0  0  0  0  0
    2.0835    0.0000    0.0000 C   0  0  0  0  0  0  0  0  0  0  0  0
    1.4850    0.0000    0.0000 C   0  0  0  0  0  0  0  0  0  0  0  0
    0.7018    0.0000    0.0000 C   0  0  0  0  0  0  0  0  0  0  0  0
    0.1620    0.0000    0.0000 C   0  0  0  0  0  0  0  0  0  0  0  0
   -0.6341    0.0000    0.0000 C   0  0  0  0  0  0  0  0  0  0  0  0
   -1.1654    0.0000    0.0000 O   0  0  0  0  0  0  0  0  0  0  0  0
   -1.9607    0.0000    0.0000 C   0  0  0  0  0  0  0  0  0  0  0  0
   -0.8957    0.0000    0.0000 C   0  0  0  0  0  0  0  0  0  0  0  0
   -1.6933    0.0000    0.0000 O   0  0  0  0  0  0  0  0  0  0  0  0
   -1.9695    0.0000    0.0000 C   0  0  0  0  0  0  0  0  0  0  0  0
   -1.7872    0.0000    0.0000 C   0  0  0  0  0  0  0  0  0  0  0  0
   -2.4614    0.0000    0.0000 C   0  0  0  0  0  0  0  0  0  0  0  0
   -0.7510    0.0000    0.0000 C   0  0  0  0  0  0  0  0  0  0  0  0
    0.0653    0.0000    0.0000 C   0  0  0  0  0  0  0  0  0  0  0  0
  1  2  1  0      
  2  3  1  0      
  3  4  2  0      
  4  5  1  0      
  5  6  1  0      
  6  7  2  0      
  7  8  1  0      
  8  9  2  0      
  9 10  1  0      
 10 11  1  0      
 11 12  1  0      
 12 13  1  0      
 12 14  1  0      
 14 15  1  0      
 15 16  1  0      
 16 17  2  0      
 17 18  1  0      
 18 19  1  0      
 19 20  1  0      
 18 21  2  0      
 21 22  1  0      
 22 23  1  0      
 23 24  2  0      
 24 25  1  0      
 25 26  1  0      
 26 27  1  0      
 27 28  1  0      
 28 29  2  0      
  3 29  1  0      
 27 30  2  0      
  4 30  1  0      
 25 31  1  0      
 31 32  1  0      
 31 33  1  0      
 33 34  1  0      
 34 35  1  0      
 24 35  1  0      
 35 36  2  0      
 36 37  1  0      
 37 38  1  0      
 38 39  1  0      
 37 40  2  0      
 23 40  1  0      
 40 41  1  0      
 41 42  1  0      
 21 43  1  0      
 43 44  2  0      
 11 44  1  0      
 16 44  1  0      
  9 45  1  0      
 45 46  2  0      
  6 46  1  0      
M  END
>  <Bioactivity>
Tetrandrine, a bis-benzylisoquinoline alkaloid derived from Stephania tetrandra, is a calcium channel blocker.

>  <CAS>
518-34-3

>  <Col>
3

>  <Formula>
C38H42N2O6

>  <ID>
T2996

>  <Index>
332

>  <MOLENAME>
Tetrandrine

>  <MolWt>
622.77

>  <Pathways>
Membrane Transporter/Ion Channel

>  <Plate>
PLATE 005

>  <QR code>
1151479917

>  <Receptor>
Calcium Channel

>  <Reference>
1. Wang G, et al. Pflugers Arch, 1992, 421(6), 558-565.

>  <Row>
B

>  <SMILES>
COC1=C2OC3=CC=C(CC4N(C)CCC5=CC(OC)=C(OC6=C7C(CC(C=C1)=C2)N(C)CCC7=CC(OC)=C6OC)C=C45)C=C3

>  <Target>
Calcium Channel inhibitor

>  <Weight>
10.3mg

$$$$
Lab-1.sdf
  ChemDraw05232018482D

 16 17  0  0  0  0  0  0  0  0999 V2000
   -2.0161    0.0000    0.0000 N   0  0  0  0  0  0  0  0  0  0  0  0
   -1.4640    0.0000    0.0000 C   0  0  0  0  0  0  0  0  0  0  0  0
   -0.6570    0.0000    0.0000 C   0  0  0  0  0  0  0  0  0  0  0  0
   -0.4021    0.0000    0.0000 C   0  0  0  0  0  0  0  0  0  0  0  0
   -0.8870    0.0000    0.0000 C   0  0  0  0  0  0  0  0  0  0  0  0
   -0.4021    0.0000    0.0000 N   0  0  0  0  0  0  0  0  0  0  0  0
    0.3825    0.0000    0.0000 C   0  0  0  0  0  0  0  0  0  0  0  0
    0.3825    0.0000    0.0000 C   0  0  0  0  0  0  0  0  0  0  0  0
    1.0970    0.0000    0.0000 C   0  0  0  0  0  0  0  0  0  0  0  0
    1.8115    0.0000    0.0000 C   0  0  0  0  0  0  0  0  0  0  0  0
    2.5259    0.0000    0.0000 O   0  0  0  0  0  0  0  0  0  0  0  0
    1.8115    0.0000    0.0000 C   0  0  0  0  0  0  0  0  0  0  0  0
    1.0970    0.0000    0.0000 C   0  0  0  0  0  0  0  0  0  0  0  0
   -1.7190    0.0000    0.0000 C   0  0  0  0  0  0  0  0  0  0  0  0
   -2.5259    0.0000    0.0000 O   0  0  0  0  0  0  0  0  0  0  0  0
   -1.1669    0.0000    0.0000 O   0  0  0  0  0  0  0  0  0  0  0  0
  1  2  1  0      
  2  3  1  0      
  3  4  1  0      
  4  5  2  0      
  5  6  1  0      
  6  7  1  0      
  7  8  2  0      
  4  8  1  0      
  8  9  1  0      
  9 10  2  0      
 10 11  1  0      
 10 12  1  0      
 12 13  2  0      
  7 13  1  0      
  2 14  1  0      
 14 15  1  0      
 14 16  2  0      
M  END
>  <Bioactivity>
5-Hydroxytryptophan (5-HTP), also known as oxitriptan (INN), is a naturally occurring amino acid and chemical precursor for the treatment of depression. Extracted from Griffonia simplicifolia;Suitabil
ity:Water;Store the product in sealed,cool and dry condition

>  <CAS>
56-69-9

>  <Col>
4

>  <Formula>
C11H12N2O3

>  <ID>
T3003

>  <Index>
333

>  <MOLENAME>
5-hydroxytryptophan (5-HTP)

>  <MolWt>
220.23

>  <Pathways>
Others

>  <Plate>
PLATE 005

>  <QR code>
1151479918

>  <Receptor>
Others

>  <Reference>
1. Rysz M, Bromek E, Daniel WA. Biochem Pharmacol. 2015 Nov 12. pii: S0006-2952(15)00723-6.

>  <Row>
B

>  <SMILES>
NC(CC1=CNC2=C1C=C(O)C=C2)C(O)=O

>  <Target>
Others

>  <Weight>
10.2mg

$$$$
Lab-1.sdf
  ChemDraw05232018482D

 12 14  0  0  0  0  0  0  0  0999 V2000
   -1.1193    0.0000    0.0000 O   0  0  0  0  0  0  0  0  0  0  0  0
   -0.8643    0.0000    0.0000 C   0  0  0  0  0  0  0  0  0  0  0  0
   -1.3492    0.0000    0.0000 O   0  0  0  0  0  0  0  0  0  0  0  0
   -0.8643    0.0000    0.0000 C   0  0  0  0  0  0  0  0  0  0  0  0
   -1.1193    0.0000    0.0000 O   0  0  0  0  0  0  0  0  0  0  0  0
   -0.0797    0.0000    0.0000 C   0  0  0  0  0  0  0  0  0  0  0  0
    0.6348    0.0000    0.0000 C   0  0  0  0  0  0  0  0  0  0  0  0
    1.3492    0.0000    0.0000 C   0  0  0  0  0  0  0  0  0  0  0  0
    1.3492    0.0000    0.0000 C   0  0  0  0  0  0  0  0  0  0  0  0
    0.6348    0.0000    0.0000 C   0  0  0  0  0  0  0  0  0  0  0  0
    0.4285    0.0000    0.0000 O   0  0  0  0  0  0  0  0  0  0  0  0
   -0.0797    0.0000    0.0000 C   0  0  0  0  0  0  0  0  0  0  0  0
  1  2  2  0      
  2  3  1  0      
  3  4  1  0      
  4  5  2  0      
  4  6  1  0      
  6  7  1  0      
  7  8  1  0      
  8  9  1  0      
  9 10  1  0      
 10 11  1  0      
  7 11  1  0      
 10 12  1  0      
  2 12  1  0      
  6 12  1  0      
M  END
>  <Bioactivity>
Extracted from Mylabris phalerata Pallas dry bulk;Store the product in sealed, cool and dry condition.

>  <CAS>
5442-12-6

>  <Col>
5

>  <Formula>
C8H8O4

>  <ID>
T2894

>  <Index>
334

>  <MOLENAME>
Norcantharidin

>  <MolWt>
168.15

>  <Pathways>
Others

>  <Plate>
PLATE 005

>  <QR code>
1151479919

>  <Receptor>
Others

>  <Reference>
1. Yuan X, et al. Pharmacology. 2015;95(1-2):1-9.

>  <Row>
B

>  <SMILES>
O=C1OC(=O)C2C3CCC(O3)C12

>  <Target>
Others

>  <Weight>
9.9mg

$$$$
Lab-1.sdf
  ChemDraw05232018482D

 12 11  0  0  0  0  0  0  0  0999 V2000
   -2.8578    0.0000    0.0000 C   0  0  0  0  0  0  0  0  0  0  0  0
   -2.1433    0.0000    0.0000 C   0  0  0  0  0  0  0  0  0  0  0  0
   -1.4289    0.0000    0.0000 N   0  0  0  0  0  0  0  0  0  0  0  0
   -0.7145    0.0000    0.0000 C   0  0  0  0  0  0  0  0  0  0  0  0
   -0.7145    0.0000    0.0000 O   0  0  0  0  0  0  0  0  0  0  0  0
   -0.0000    0.0000    0.0000 C   0  0  0  0  0  0  0  0  0  0  0  0
    0.7145    0.0000    0.0000 C   0  0  0  0  0  0  0  0  0  0  0  0
    1.4290    0.0000    0.0000 C   0  0  0  0  0  0  0  0  0  0  0  0
    1.4290    0.0000    0.0000 N   0  0  0  0  0  0  0  0  0  0  0  0
    2.1433    0.0000    0.0000 C   0  0  0  0  0  0  0  0  0  0  0  0
    2.8578    0.0000    0.0000 O   0  0  0  0  0  0  0  0  0  0  0  0
    2.1433    0.0000    0.0000 O   0  0  0  0  0  0  0  0  0  0  0  0
  1  2  1  0      
  2  3  1  0      
  3  4  1  0      
  4  5  2  0      
  4  6  1  0      
  6  7  1  0      
  7  8  1  0      
  8  9  1  0      
  8 10  1  0      
 10 11  1  0      
 10 12  2  0      
M  END
>  <Bioactivity>
Extracted from Camellia sinensis;Store the product in sealed, cool and dry condition.

>  <CAS>
3081-61-6

>  <Col>
6

>  <Formula>
C7H14N2O3

>  <ID>
T2800

>  <Index>
335

>  <MOLENAME>
L-Theanine

>  <MolWt>
174.2

>  <Pathways>
Others

>  <Plate>
PLATE 005

>  <QR code>
1151479920

>  <Receptor>
Others

>  <Reference>
1. P¨¦rez-Vargas JE, et al. Hum Exp Toxicol. 2015 Apr 7. pii: 0960327115578864. 

>  <Row>
B

>  <SMILES>
CCNC(=O)CCC(N)C(O)=O

>  <Target>
Others

>  <Weight>
10.3mg

$$$$
Lab-1.sdf
  ChemDraw05232018482D

 11 10  0  0  0  0  0  0  0  0999 V2000
   -2.6074    0.0000    0.0000 Cl  0  0  0  0  0  0  0  0  0  0  0  0
    1.1786    0.0000    0.0000 C   0  0  0  0  0  0  0  0  0  0  0  0
    1.1786    0.0000    0.0000 C   0  0  0  0  0  0  0  0  0  0  0  0
    1.8930    0.0000    0.0000 N   0  0  0  0  0  0  0  0  0  0  0  0
    1.8930    0.0000    0.0000 C   0  0  0  0  0  0  0  0  0  0  0  0
    2.6074    0.0000    0.0000 C   0  0  0  0  0  0  0  0  0  0  0  0
    1.1786    0.0000    0.0000 C   0  0  0  0  0  0  0  0  0  0  0  0
    1.1786    0.0000    0.0000 C   0  0  0  0  0  0  0  0  0  0  0  0
    0.4641    0.0000    0.0000 N   0  0  0  0  0  0  0  0  0  0  0  0
    0.4641    0.0000    0.0000 C   0  0  0  0  0  0  0  0  0  0  0  0
   -0.2504    0.0000    0.0000 C   0  0  0  0  0  0  0  0  0  0  0  0
  2  3  1  0      
  3  4  2  0      
  4  5  1  0      
  5  6  1  0      
  5  7  2  0      
  7  8  1  0      
  7  9  1  0      
  9 10  2  0      
  3 10  1  0      
 10 11  1  0      
M  END
>  <Bioactivity>
Ligustrazine (hydrochloride) is a natural product.

>  <CAS>
76494-51-4

>  <Col>
7

>  <Formula>
C8H12N2?HCl

>  <ID>
T2953

>  <Index>
336

>  <MOLENAME>
Ligustrazine hydrochloride

>  <MolWt>
172.66

>  <Pathways>
Others

>  <Plate>
PLATE 005

>  <QR code>
1151479921

>  <Receptor>
Others

>  <Reference>
1. Gao HJ, et al. Neural Regen Res. 2015 May;10(5):832-40. 

>  <Row>
B

>  <SMILES>
Cl.CC1=NC(C)=C(C)N=C1C

>  <Target>
Others

>  <Weight>
9.9mg

$$$$
Lab-1.sdf
  ChemDraw05232018482D

 26 29  0  0  0  0  0  0  0  0999 V2000
   -3.9158    0.0000    0.0000 C   0  0  0  0  0  0  0  0  0  0  0  0
   -3.3756    0.0000    0.0000 O   0  0  0  0  0  0  0  0  0  0  0  0
   -2.5654    0.0000    0.0000 C   0  0  0  0  0  0  0  0  0  0  0  0
   -2.0253    0.0000    0.0000 C   0  0  0  0  0  0  0  0  0  0  0  0
   -2.2954    0.0000    0.0000 O   0  0  0  0  0  0  0  0  0  0  0  0
   -1.7553    0.0000    0.0000 C   0  0  0  0  0  0  0  0  0  0  0  0
   -1.2152    0.0000    0.0000 C   0  0  0  0  0  0  0  0  0  0  0  0
   -0.9452    0.0000    0.0000 C   0  0  0  0  0  0  0  0  0  0  0  0
   -0.1350    0.0000    0.0000 C   0  0  0  0  0  0  0  0  0  0  0  0
    0.4052    0.0000    0.0000 C   0  0  0  0  0  0  0  0  0  0  0  0
    1.2153    0.0000    0.0000 C   0  0  0  0  0  0  0  0  0  0  0  0
    1.4853    0.0000    0.0000 C   0  0  0  0  0  0  0  0  0  0  0  0
    0.9452    0.0000    0.0000 C   0  0  0  0  0  0  0  0  0  0  0  0
    0.1351    0.0000    0.0000 N   0  0  0  0  0  0  0  0  0  0  0  0
   -0.4051    0.0000    0.0000 C   0  0  0  0  0  0  0  0  0  0  0  0
   -1.2152    0.0000    0.0000 C   0  0  0  0  0  0  0  0  0  0  0  0
   -1.4853    0.0000    0.0000 C   0  0  0  0  0  0  0  0  0  0  0  0
   -2.2954    0.0000    0.0000 C   0  0  0  0  0  0  0  0  0  0  0  0
    2.2955    0.0000    0.0000 C   0  0  0  0  0  0  0  0  0  0  0  0
    2.5655    0.0000    0.0000 O   0  0  0  0  0  0  0  0  0  0  0  0
    3.3756    0.0000    0.0000 C   0  0  0  0  0  0  0  0  0  0  0  0
    2.8356    0.0000    0.0000 C   0  0  0  0  0  0  0  0  0  0  0  0
    3.6458    0.0000    0.0000 O   0  0  0  0  0  0  0  0  0  0  0  0
    3.9158    0.0000    0.0000 C   0  0  0  0  0  0  0  0  0  0  0  0
    2.5655    0.0000    0.0000 C   0  0  0  0  0  0  0  0  0  0  0  0
    1.7554    0.0000    0.0000 C   0  0  0  0  0  0  0  0  0  0  0  0
  1  2  1  0      
  2  3  1  0      
  3  4  2  0      
  4  5  1  0      
  5  6  1  0      
  4  7  1  0      
  7  8  2  0      
  8  9  1  0      
  9 10  1  0      
 10 11  1  0      
 11 12  2  0      
 12 13  1  0      
 13 14  1  0      
  9 14  1  0      
 14 15  1  0      
 15 16  1  0      
 16 17  1  0      
  8 17  1  0      
 17 18  2  0      
  3 18  1  0      
 12 19  1  0      
 19 20  1  0      
 20 21  1  0      
 19 22  2  0      
 22 23  1  0      
 23 24  1  0      
 22 25  1  0      
 25 26  2  0      
 11 26  1  0      
M  END
>  <Bioactivity>
Extracted from Corydalis yanhusuo W. T. Wang;Suitability:DMSO,acidic solvent;Store the product in sealed,cool and dry condition

>  <CAS>
10097-84-4

>  <Col>
8

>  <Formula>
C21H25NO4

>  <ID>
T2714

>  <Index>
337

>  <MOLENAME>
Rotundine, TETRAHYDROPALMATINE HYDROCHLORIDE

>  <MolWt>
355.43

>  <Pathways>
Neuronal Signaling/ GPCR & G Protein

>  <Plate>
PLATE 005

>  <QR code>
1151479922

>  <Receptor>
D1 receptor; 5-HT1A; D2 receptor; D3 receptor

>  <Reference>
1. Wang JB, et al. Future Med Chem, 2012, 4(2), 177-186.

>  <Row>
B

>  <SMILES>
COC1=C(OC)C=C2C3CC4=C(CN3CCC2=C1)C(OC)=C(OC)C=C4

>  <Target>
Dopamine Receptor antagonist

>  <Weight>
10mg

$$$$
Lab-1.sdf
  ChemDraw05232018482D

 21 23  0  0  0  0  0  0  0  0999 V2000
   -3.2150    0.0000    0.0000 O   0  0  0  0  0  0  0  0  0  0  0  0
   -2.5006    0.0000    0.0000 C   0  0  0  0  0  0  0  0  0  0  0  0
   -1.7861    0.0000    0.0000 C   0  0  0  0  0  0  0  0  0  0  0  0
   -1.0717    0.0000    0.0000 C   0  0  0  0  0  0  0  0  0  0  0  0
   -1.0717    0.0000    0.0000 C   0  0  0  0  0  0  0  0  0  0  0  0
   -1.7861    0.0000    0.0000 C   0  0  0  0  0  0  0  0  0  0  0  0
   -2.5006    0.0000    0.0000 C   0  0  0  0  0  0  0  0  0  0  0  0
   -0.3573    0.0000    0.0000 C   0  0  0  0  0  0  0  0  0  0  0  0
   -0.3573    0.0000    0.0000 O   0  0  0  0  0  0  0  0  0  0  0  0
    0.3572    0.0000    0.0000 C   0  0  0  0  0  0  0  0  0  0  0  0
    1.0717    0.0000    0.0000 O   0  0  0  0  0  0  0  0  0  0  0  0
    0.3572    0.0000    0.0000 C   0  0  0  0  0  0  0  0  0  0  0  0
   -0.3573    0.0000    0.0000 O   0  0  0  0  0  0  0  0  0  0  0  0
    1.0717    0.0000    0.0000 C   0  0  0  0  0  0  0  0  0  0  0  0
    1.7861    0.0000    0.0000 C   0  0  0  0  0  0  0  0  0  0  0  0
    2.5005    0.0000    0.0000 C   0  0  0  0  0  0  0  0  0  0  0  0
    3.2150    0.0000    0.0000 O   0  0  0  0  0  0  0  0  0  0  0  0
    2.5005    0.0000    0.0000 C   0  0  0  0  0  0  0  0  0  0  0  0
    3.2150    0.0000    0.0000 O   0  0  0  0  0  0  0  0  0  0  0  0
    1.7861    0.0000    0.0000 C   0  0  0  0  0  0  0  0  0  0  0  0
    1.0717    0.0000    0.0000 C   0  0  0  0  0  0  0  0  0  0  0  0
  1  2  1  0      
  2  3  2  0      
  3  4  1  0      
  4  5  2  0      
  5  6  1  0      
  6  7  2  0      
  2  7  1  0      
  5  8  1  0      
  8  9  2  0      
  8 10  1  0      
 10 11  1  0      
 10 12  2  0      
 12 13  1  0      
  4 13  1  0      
 12 14  1  0      
 14 15  2  0      
 15 16  1  0      
 16 17  1  0      
 16 18  2  0      
 18 19  1  0      
 18 20  1  0      
 20 21  2  0      
 14 21  1  0      
M  END
>  <Bioactivity>
Extracted from Rhus succedanea L;Store the product in sealed, cool and dry condition.

>  <CAS>
528-48-3

>  <Col>
9

>  <Formula>
C15H10O6

>  <ID>
T2879

>  <Index>
338

>  <MOLENAME>
Fisetin

>  <MolWt>
286.24

>  <Pathways>
Chromatin/Epigenetic

>  <Plate>
PLATE 005

>  <QR code>
1151479923

>  <Receptor>
Sirtuins

>  <Reference>
1. Kim SC, et al. Biochem Biophys Res Commun. 2015 Nov 27;467(4):638-44. 

>  <Row>
B

>  <SMILES>
OC1=CC2=C(C=C1)C(=O)C(O)=C(O2)C1=CC(O)=C(O)C=C1

>  <Target>
Sirtuin activator

>  <Weight>
10.3mg

$$$$
Lab-1.sdf
  ChemDraw05232018482D

 43 48  0  0  0  0  0  0  0  0999 V2000
    1.2246    0.0000    0.0000 O   0  0  0  0  0  0  0  0  0  0  0  0
    1.2246    0.0000    0.0000 C   0  0  0  0  0  0  0  0  0  0  0  0
    0.5101    0.0000    0.0000 C   0  0  0  0  0  0  0  0  0  0  0  0
    0.4239    0.0000    0.0000 O   0  0  0  0  0  0  0  0  0  0  0  0
    0.5101    0.0000    0.0000 C   0  0  0  0  0  0  0  0  0  0  0  0
   -0.3023    0.0000    0.0000 O   0  0  0  0  0  0  0  0  0  0  0  0
   -0.5845    0.0000    0.0000 C   0  0  0  0  0  0  0  0  0  0  0  0
   -0.0542    0.0000    0.0000 C   0  0  0  0  0  0  0  0  0  0  0  0
   -0.3364    0.0000    0.0000 C   0  0  0  0  0  0  0  0  0  0  0  0
    0.1939    0.0000    0.0000 C   0  0  0  0  0  0  0  0  0  0  0  0
    1.0064    0.0000    0.0000 O   0  0  0  0  0  0  0  0  0  0  0  0
   -0.0882    0.0000    0.0000 C   0  0  0  0  0  0  0  0  0  0  0  0
   -0.9007    0.0000    0.0000 C   0  0  0  0  0  0  0  0  0  0  0  0
   -1.1829    0.0000    0.0000 O   0  0  0  0  0  0  0  0  0  0  0  0
   -1.4310    0.0000    0.0000 C   0  0  0  0  0  0  0  0  0  0  0  0
   -1.1488    0.0000    0.0000 C   0  0  0  0  0  0  0  0  0  0  0  0
   -1.6791    0.0000    0.0000 O   0  0  0  0  0  0  0  0  0  0  0  0
   -1.3970    0.0000    0.0000 C   0  0  0  0  0  0  0  0  0  0  0  0
   -1.9273    0.0000    0.0000 C   0  0  0  0  0  0  0  0  0  0  0  0
   -2.7397    0.0000    0.0000 C   0  0  0  0  0  0  0  0  0  0  0  0
   -3.2700    0.0000    0.0000 C   0  0  0  0  0  0  0  0  0  0  0  0
   -4.0824    0.0000    0.0000 O   0  0  0  0  0  0  0  0  0  0  0  0
   -2.9879    0.0000    0.0000 C   0  0  0  0  0  0  0  0  0  0  0  0
   -3.5182    0.0000    0.0000 O   0  0  0  0  0  0  0  0  0  0  0  0
   -2.1754    0.0000    0.0000 C   0  0  0  0  0  0  0  0  0  0  0  0
   -1.6451    0.0000    0.0000 C   0  0  0  0  0  0  0  0  0  0  0  0
    1.2246    0.0000    0.0000 O   0  0  0  0  0  0  0  0  0  0  0  0
    1.9391    0.0000    0.0000 C   0  0  0  0  0  0  0  0  0  0  0  0
    2.6535    0.0000    0.0000 C   0  0  0  0  0  0  0  0  0  0  0  0
    3.3680    0.0000    0.0000 C   0  0  0  0  0  0  0  0  0  0  0  0
    4.0824    0.0000    0.0000 O   0  0  0  0  0  0  0  0  0  0  0  0
    3.3680    0.0000    0.0000 C   0  0  0  0  0  0  0  0  0  0  0  0
    2.6535    0.0000    0.0000 C   0  0  0  0  0  0  0  0  0  0  0  0
    2.6535    0.0000    0.0000 O   0  0  0  0  0  0  0  0  0  0  0  0
    1.9391    0.0000    0.0000 C   0  0  0  0  0  0  0  0  0  0  0  0
    0.2280    0.0000    0.0000 C   0  0  0  0  0  0  0  0  0  0  0  0
   -0.5845    0.0000    0.0000 C   0  0  0  0  0  0  0  0  0  0  0  0
   -0.8667    0.0000    0.0000 C   0  0  0  0  0  0  0  0  0  0  0  0
   -1.6791    0.0000    0.0000 O   0  0  0  0  0  0  0  0  0  0  0  0
   -0.3364    0.0000    0.0000 C   0  0  0  0  0  0  0  0  0  0  0  0
   -0.6185    0.0000    0.0000 O   0  0  0  0  0  0  0  0  0  0  0  0
    0.4761    0.0000    0.0000 C   0  0  0  0  0  0  0  0  0  0  0  0
    0.7583    0.0000    0.0000 C   0  0  0  0  0  0  0  0  0  0  0  0
  1  2  1  0      
  2  3  1  0      
  3  4  1  0      
  3  5  1  0      
  5  6  1  0      
  6  7  1  0      
  7  8  1  0      
  8  9  1  0      
  9 10  2  0      
 10 11  1  0      
 10 12  1  0      
 12 13  2  0      
 13 14  1  0      
 13 15  1  0      
 15 16  2  0      
  9 16  1  0      
 16 17  1  0      
 17 18  1  0      
  7 18  1  0      
 18 19  1  0      
 19 20  2  0      
 20 21  1  0      
 21 22  1  0      
 21 23  2  0      
 23 24  1  0      
 23 25  1  0      
 25 26  2  0      
 19 26  1  0      
  5 27  1  0      
 27 28  1  0      
 28 29  2  0      
 29 30  1  0      
 30 31  1  0      
 30 32  2  0      
 32 33  1  0      
 33 34  1  0      
 33 35  2  0      
  2 35  1  0      
 28 35  1  0      
  5 36  1  0      
 36 37  2  0      
 37 38  1  0      
 38 39  1  0      
 38 40  2  0      
 40 41  1  0      
 40 42  1  0      
 42 43  2  0      
 36 43  1  0      
M  END
>  <Bioactivity>
Extracted from Grape seed,pine bark coast of France; Suitability:Water,most organic solvents;Store the product in sealed,cool and dry condition

>  <CAS>
4852-22-6

>  <Col>
10

>  <Formula>
C30H26O13

>  <ID>
T2849

>  <Index>
339

>  <MOLENAME>
Proanthocyanidins

>  <MolWt>
594.52

>  <Pathways>
Others

>  <Plate>
PLATE 005

>  <QR code>
1151479924

>  <Receptor>
Others

>  <Reference>
1. Ma J, et al. Nan Fang Yi Ke Da Xue Xue Bao. 2015 Aug;35(8):1110-5. Chinese.

>  <Row>
B

>  <SMILES>
OC1C(O)C(OC2CC3=C(O)C=C(O)C=C3OC2C2=CC(O)=C(O)C=C2)(OC2=CC(O)=CC(O)=C12)C1=CC(O)=C(O)C=C1

>  <Target>
Others

>  <Weight>
9.8mg

$$$$
Lab-1.sdf
  ChemDraw05232018482D

 28 31  0  0  0  0  0  0  0  0999 V2000
   -1.4673    0.0000    0.0000 C   0  0  0  0  0  0  0  0  0  0  0  0
   -1.7782    0.0000    0.0000 C   0  0  0  0  0  0  0  0  0  0  0  0
   -2.5955    0.0000    0.0000 C   0  0  0  0  0  0  0  0  0  0  0  0
   -3.1019    0.0000    0.0000 C   0  0  0  0  0  0  0  0  0  0  0  0
   -3.9191    0.0000    0.0000 C   0  0  0  0  0  0  0  0  0  0  0  0
   -4.4255    0.0000    0.0000 O   0  0  0  0  0  0  0  0  0  0  0  0
   -4.2300    0.0000    0.0000 O   0  0  0  0  0  0  0  0  0  0  0  0
   -1.2718    0.0000    0.0000 C   0  0  0  0  0  0  0  0  0  0  0  0
   -1.5011    0.0000    0.0000 C   0  0  0  0  0  0  0  0  0  0  0  0
   -0.8183    0.0000    0.0000 C   0  0  0  0  0  0  0  0  0  0  0  0
   -0.1670    0.0000    0.0000 C   0  0  0  0  0  0  0  0  0  0  0  0
    0.6452    0.0000    0.0000 C   0  0  0  0  0  0  0  0  0  0  0  0
    0.9254    0.0000    0.0000 C   0  0  0  0  0  0  0  0  0  0  0  0
    1.7376    0.0000    0.0000 C   0  0  0  0  0  0  0  0  0  0  0  0
    2.0179    0.0000    0.0000 O   0  0  0  0  0  0  0  0  0  0  0  0
    2.2695    0.0000    0.0000 C   0  0  0  0  0  0  0  0  0  0  0  0
    3.0816    0.0000    0.0000 C   0  0  0  0  0  0  0  0  0  0  0  0
    3.6134    0.0000    0.0000 C   0  0  0  0  0  0  0  0  0  0  0  0
    4.4255    0.0000    0.0000 O   0  0  0  0  0  0  0  0  0  0  0  0
    3.3331    0.0000    0.0000 C   0  0  0  0  0  0  0  0  0  0  0  0
    2.5210    0.0000    0.0000 C   0  0  0  0  0  0  0  0  0  0  0  0
    1.9891    0.0000    0.0000 C   0  0  0  0  0  0  0  0  0  0  0  0
    1.7088    0.0000    0.0000 C   0  0  0  0  0  0  0  0  0  0  0  0
    1.1770    0.0000    0.0000 C   0  0  0  0  0  0  0  0  0  0  0  0
    0.8967    0.0000    0.0000 C   0  0  0  0  0  0  0  0  0  0  0  0
    0.0846    0.0000    0.0000 C   0  0  0  0  0  0  0  0  0  0  0  0
   -0.4473    0.0000    0.0000 C   0  0  0  0  0  0  0  0  0  0  0  0
   -0.8071    0.0000    0.0000 C   0  0  0  0  0  0  0  0  0  0  0  0
  1  2  1  0      
  2  3  1  0      
  3  4  1  0      
  4  5  1  0      
  5  6  1  0      
  5  7  2  0      
  2  8  1  0      
  8  9  1  0      
  9 10  1  0      
 10 11  1  0      
 11 12  1  0      
 12 13  1  0      
 13 14  1  0      
 14 15  1  0      
 14 16  1  0      
 16 17  1  0      
 17 18  1  0      
 18 19  1  0      
 18 20  1  0      
 20 21  1  0      
 21 22  1  0      
 16 22  1  0      
 22 23  1  0      
 22 24  1  0      
 12 24  1  0      
 24 25  1  0      
 25 26  1  0      
 26 27  1  0      
  8 27  1  0      
 11 27  1  0      
 27 28  1  0      
M  END
>  <Bioactivity>
Extracted from Pigs bile;Suitability:alcohol;Store the product in sealed,cool and dry condition

>  <CAS>
83-49-8

>  <Col>
11

>  <Formula>
C24H40O4

>  <ID>
T2968

>  <Index>
340

>  <MOLENAME>
Hyodeoxycholic acid (HDCA)

>  <MolWt>
392.58

>  <Pathways>
Metabolism

>  <Plate>
PLATE 005

>  <QR code>
1151479925

>  <Receptor>
Farnesoid X receptor 

>  <Reference>
1. Shih DM, et al. FASEB J. 2013 Sep;27(9):3805-17. 

>  <Row>
B

>  <SMILES>
CC(CCC(O)=O)C1CCC2C3CC(O)C4CC(O)CCC4(C)C3CCC12C

>  <Target>
Farnesoid X receptor antagonist

>  <Weight>
10.3mg

$$$$
Lab-1.sdf
  ChemDraw05232018482D

 22 25  0  0  0  0  0  0  0  0999 V2000
   -3.8770    0.0000    0.0000 Cl  0  0  0  0  0  0  0  0  0  0  0  0
   -0.7649    0.0000    0.0000 O   0  0  0  0  0  0  0  0  0  0  0  0
   -0.5935    0.0000    0.0000 C   0  0  0  0  0  0  0  0  0  0  0  0
   -1.2065    0.0000    0.0000 C   0  0  0  0  0  0  0  0  0  0  0  0
   -1.0349    0.0000    0.0000 C   0  0  0  0  0  0  0  0  0  0  0  0
   -1.5199    0.0000    0.0000 C   0  0  0  0  0  0  0  0  0  0  0  0
   -1.0349    0.0000    0.0000 C   0  0  0  0  0  0  0  0  0  0  0  0
   -0.2504    0.0000    0.0000 N   0  0  0  0  0  0  0  0  0  0  0  0
    0.4642    0.0000    0.0000 C   0  0  0  0  0  0  0  0  0  0  0  0
    1.1785    0.0000    0.0000 C   0  0  0  0  0  0  0  0  0  0  0  0
    1.8930    0.0000    0.0000 C   0  0  0  0  0  0  0  0  0  0  0  0
    2.6075    0.0000    0.0000 C   0  0  0  0  0  0  0  0  0  0  0  0
    2.6075    0.0000    0.0000 C   0  0  0  0  0  0  0  0  0  0  0  0
    3.3921    0.0000    0.0000 O   0  0  0  0  0  0  0  0  0  0  0  0
    3.8770    0.0000    0.0000 C   0  0  0  0  0  0  0  0  0  0  0  0
    3.3921    0.0000    0.0000 O   0  0  0  0  0  0  0  0  0  0  0  0
    1.8930    0.0000    0.0000 C   0  0  0  0  0  0  0  0  0  0  0  0
    1.1785    0.0000    0.0000 C   0  0  0  0  0  0  0  0  0  0  0  0
    0.3628    0.0000    0.0000 C   0  0  0  0  0  0  0  0  0  0  0  0
   -0.2504    0.0000    0.0000 C   0  0  0  0  0  0  0  0  0  0  0  0
    0.1912    0.0000    0.0000 C   0  0  0  0  0  0  0  0  0  0  0  0
    0.8042    0.0000    0.0000 O   0  0  0  0  0  0  0  0  0  0  0  0
  2  3  1  0      
  3  4  1  0      
  4  5  2  0      
  5  6  1  0      
  6  7  1  0      
  7  8  1  0      
  8  9  1  0      
  9 10  1  0      
 10 11  2  0      
 11 12  1  0      
 12 13  2  0      
 13 14  1  0      
 14 15  1  0      
 15 16  1  0      
 12 16  1  0      
 13 17  1  0      
 17 18  2  0      
 10 18  1  0      
 18 19  1  0      
 19 20  1  0      
  5 20  1  0      
  8 20  1  0      
 19 21  1  0      
  3 21  1  0      
 21 22  1  0      
M  END
>  <Bioactivity>
Extracted from Lycoris radiata;Store the product in sealed,cool and dry condition

>  <CAS>
2188-68-3

>  <Col>
2

>  <Formula>
C16H18ClNO4

>  <ID>
T2774

>  <Index>
341

>  <MOLENAME>
Lycorine chloride

>  <MolWt>
323.17

>  <Pathways>
Others

>  <Plate>
PLATE 005

>  <QR code>
1151479913

>  <Receptor>
Others

>  <Reference>
1. Hu M, et al. Oncotarget. 2015 Jun 20;6(17):15348-61.

>  <Row>
C

>  <SMILES>
Cl.OC1C=C2CCN3CC4=CC5=C(OCO5)C=C4C(C23)C1O

>  <Target>
Others

>  <Weight>
10.1mg

$$$$
Lab-1.sdf
  ChemDraw05232018482D

 20 22  0  0  0  0  0  0  0  0999 V2000
   -3.2151    0.0000    0.0000 O   0  0  0  0  0  0  0  0  0  0  0  0
   -2.5006    0.0000    0.0000 C   0  0  0  0  0  0  0  0  0  0  0  0
   -2.5006    0.0000    0.0000 C   0  0  0  0  0  0  0  0  0  0  0  0
   -1.7862    0.0000    0.0000 C   0  0  0  0  0  0  0  0  0  0  0  0
   -1.0717    0.0000    0.0000 C   0  0  0  0  0  0  0  0  0  0  0  0
   -1.0717    0.0000    0.0000 C   0  0  0  0  0  0  0  0  0  0  0  0
   -1.7862    0.0000    0.0000 C   0  0  0  0  0  0  0  0  0  0  0  0
   -0.3572    0.0000    0.0000 C   0  0  0  0  0  0  0  0  0  0  0  0
   -0.3572    0.0000    0.0000 C   0  0  0  0  0  0  0  0  0  0  0  0
    0.3572    0.0000    0.0000 C   0  0  0  0  0  0  0  0  0  0  0  0
    0.3572    0.0000    0.0000 O   0  0  0  0  0  0  0  0  0  0  0  0
    1.0717    0.0000    0.0000 C   0  0  0  0  0  0  0  0  0  0  0  0
    1.7862    0.0000    0.0000 C   0  0  0  0  0  0  0  0  0  0  0  0
    1.7862    0.0000    0.0000 O   0  0  0  0  0  0  0  0  0  0  0  0
    2.5007    0.0000    0.0000 C   0  0  0  0  0  0  0  0  0  0  0  0
    2.5007    0.0000    0.0000 C   0  0  0  0  0  0  0  0  0  0  0  0
    3.2151    0.0000    0.0000 O   0  0  0  0  0  0  0  0  0  0  0  0
    1.7862    0.0000    0.0000 C   0  0  0  0  0  0  0  0  0  0  0  0
    1.0717    0.0000    0.0000 C   0  0  0  0  0  0  0  0  0  0  0  0
    0.3572    0.0000    0.0000 O   0  0  0  0  0  0  0  0  0  0  0  0
  1  2  1  0      
  2  3  2  0      
  3  4  1  0      
  4  5  2  0      
  5  6  1  0      
  6  7  2  0      
  2  7  1  0      
  5  8  1  0      
  8  9  1  0      
  9 10  1  0      
 10 11  2  0      
 10 12  1  0      
 12 13  2  0      
 13 14  1  0      
 13 15  1  0      
 15 16  2  0      
 16 17  1  0      
 16 18  1  0      
 18 19  2  0      
 12 19  1  0      
 19 20  1  0      
  8 20  1  0      
M  END
>  <Bioactivity>
Extracted from Amacardi-um occidentale L.;Suitability:Ethanol,ether and benzene;Store the product in sealed,cool and dry condition.

>  <CAS>
480-41-1

>  <Col>
3

>  <Formula>
C15H12O5

>  <ID>
T2838

>  <Index>
342

>  <MOLENAME>
Naringenin

>  <MolWt>
272.26

>  <Pathways>
Metabolism

>  <Plate>
PLATE 005

>  <QR code>
1151479912

>  <Receptor>
CYP1A2

>  <Reference>
1. Fuhr U, et al. Br J Clin Pharmacol, 1993, 35(4):431-436.

>  <Row>
C

>  <SMILES>
OC1=CC=C(C=C1)C1CC(=O)C2=C(O)C=C(O)C=C2O1

>  <Target>
CYP inhibitor

>  <Weight>
10.1mg

$$$$
Lab-1.sdf
  ChemDraw05232018482D

 19 21  0  0  0  0  0  0  0  0999 V2000
   -3.3219    0.0000    0.0000 O   0  0  0  0  0  0  0  0  0  0  0  0
    2.6074    0.0000    0.0000 O   0  0  0  0  0  0  0  0  0  0  0  0
    2.6074    0.0000    0.0000 C   0  0  0  0  0  0  0  0  0  0  0  0
    3.3219    0.0000    0.0000 C   0  0  0  0  0  0  0  0  0  0  0  0
    3.3219    0.0000    0.0000 C   0  0  0  0  0  0  0  0  0  0  0  0
    2.6074    0.0000    0.0000 C   0  0  0  0  0  0  0  0  0  0  0  0
    1.8929    0.0000    0.0000 C   0  0  0  0  0  0  0  0  0  0  0  0
    1.1786    0.0000    0.0000 C   0  0  0  0  0  0  0  0  0  0  0  0
    1.1786    0.0000    0.0000 C   0  0  0  0  0  0  0  0  0  0  0  0
    0.4641    0.0000    0.0000 C   0  0  0  0  0  0  0  0  0  0  0  0
   -0.2504    0.0000    0.0000 C   0  0  0  0  0  0  0  0  0  0  0  0
   -0.2504    0.0000    0.0000 N   0  0  0  0  0  0  0  0  0  0  0  0
   -0.9649    0.0000    0.0000 C   0  0  0  0  0  0  0  0  0  0  0  0
   -0.9649    0.0000    0.0000 C   0  0  0  0  0  0  0  0  0  0  0  0
   -0.2504    0.0000    0.0000 C   0  0  0  0  0  0  0  0  0  0  0  0
    0.4641    0.0000    0.0000 C   0  0  0  0  0  0  0  0  0  0  0  0
    1.1786    0.0000    0.0000 C   0  0  0  0  0  0  0  0  0  0  0  0
    1.8929    0.0000    0.0000 N   0  0  0  0  0  0  0  0  0  0  0  0
    0.4641    0.0000    0.0000 C   0  0  0  0  0  0  0  0  0  0  0  0
  2  3  2  0      
  3  4  1  0      
  4  5  2  0      
  5  6  1  0      
  6  7  1  0      
  7  8  1  0      
  8  9  1  0      
  9 10  1  0      
 10 11  1  0      
 11 12  1  0      
 12 13  1  0      
 13 14  1  0      
 14 15  1  0      
 15 16  1  0      
 16 17  1  0      
 17 18  1  0      
  3 18  1  0      
  7 18  1  0      
 16 19  1  0      
  8 19  1  0      
 12 19  1  0      
M  END
>  <Bioactivity>
Extracted from Sophora flavescens Ait.;Suitability:Methanol,ethanol,chloroform,acetone and benzene;Store the product in sealed,cool and dry condition

>  <CAS>
145572-44-7

>  <Col>
4

>  <Formula>
C15H22N2O

>  <ID>
T2746

>  <Index>
343

>  <MOLENAME>
Sophocarpine

>  <MolWt>
246.35

>  <Pathways>
Others

>  <Plate>
PLATE 005

>  <QR code>
1151479911

>  <Receptor>
Others

>  <Reference>
1. Song CY, et al. J Gastroenterol Hepatol. 2015 Feb;30(2):405-12. 

>  <Row>
C

>  <SMILES>
O.O=C1C=CCC2C3CCCN4CCCC(CN12)C34

>  <Target>
Others

>  <Weight>
10.3mg

$$$$
Lab-1.sdf
  ChemDraw05232018482D

 34 38  0  0  0  0  0  0  0  0999 V2000
    3.7476    0.0000    0.0000 C   0  0  0  0  0  0  0  0  0  0  0  0
    2.9724    0.0000    0.0000 C   0  0  0  0  0  0  0  0  0  0  0  0
    2.8291    0.0000    0.0000 C   0  0  0  0  0  0  0  0  0  0  0  0
    3.3849    0.0000    0.0000 C   0  0  0  0  0  0  0  0  0  0  0  0
    4.2099    0.0000    0.0000 O   0  0  0  0  0  0  0  0  0  0  0  0
    2.9724    0.0000    0.0000 C   0  0  0  0  0  0  0  0  0  0  0  0
    2.1474    0.0000    0.0000 C   0  0  0  0  0  0  0  0  0  0  0  0
    1.7349    0.0000    0.0000 C   0  0  0  0  0  0  0  0  0  0  0  0
    1.3224    0.0000    0.0000 C   0  0  0  0  0  0  0  0  0  0  0  0
    2.1474    0.0000    0.0000 C   0  0  0  0  0  0  0  0  0  0  0  0
    1.7349    0.0000    0.0000 C   0  0  0  0  0  0  0  0  0  0  0  0
    0.9099    0.0000    0.0000 C   0  0  0  0  0  0  0  0  0  0  0  0
    0.4974    0.0000    0.0000 C   0  0  0  0  0  0  0  0  0  0  0  0
    0.0849    0.0000    0.0000 C   0  0  0  0  0  0  0  0  0  0  0  0
    0.9099    0.0000    0.0000 C   0  0  0  0  0  0  0  0  0  0  0  0
    0.4974    0.0000    0.0000 C   0  0  0  0  0  0  0  0  0  0  0  0
    0.9099    0.0000    0.0000 O   0  0  0  0  0  0  0  0  0  0  0  0
   -0.3276    0.0000    0.0000 C   0  0  0  0  0  0  0  0  0  0  0  0
   -0.7401    0.0000    0.0000 C   0  0  0  0  0  0  0  0  0  0  0  0
   -1.5651    0.0000    0.0000 C   0  0  0  0  0  0  0  0  0  0  0  0
   -1.9776    0.0000    0.0000 C   0  0  0  0  0  0  0  0  0  0  0  0
   -2.8026    0.0000    0.0000 C   0  0  0  0  0  0  0  0  0  0  0  0
   -2.6594    0.0000    0.0000 C   0  0  0  0  0  0  0  0  0  0  0  0
   -3.2151    0.0000    0.0000 C   0  0  0  0  0  0  0  0  0  0  0  0
   -2.8026    0.0000    0.0000 C   0  0  0  0  0  0  0  0  0  0  0  0
   -1.9776    0.0000    0.0000 C   0  0  0  0  0  0  0  0  0  0  0  0
   -2.3901    0.0000    0.0000 C   0  0  0  0  0  0  0  0  0  0  0  0
   -1.5651    0.0000    0.0000 C   0  0  0  0  0  0  0  0  0  0  0  0
   -0.7401    0.0000    0.0000 C   0  0  0  0  0  0  0  0  0  0  0  0
   -0.3276    0.0000    0.0000 C   0  0  0  0  0  0  0  0  0  0  0  0
   -0.4139    0.0000    0.0000 C   0  0  0  0  0  0  0  0  0  0  0  0
   -3.5779    0.0000    0.0000 C   0  0  0  0  0  0  0  0  0  0  0  0
   -3.7211    0.0000    0.0000 O   0  0  0  0  0  0  0  0  0  0  0  0
   -4.2099    0.0000    0.0000 O   0  0  0  0  0  0  0  0  0  0  0  0
  1  2  1  0      
  2  3  1  0      
  2  4  1  0      
  4  5  1  0      
  4  6  1  0      
  6  7  1  0      
  7  8  1  0      
  8  9  1  0      
  8 10  1  0      
  2 10  1  0      
 10 11  1  0      
 11 12  1  0      
 12 13  1  0      
 13 14  1  0      
 13 15  1  0      
  8 15  1  0      
 15 16  1  0      
 16 17  2  0      
 16 18  1  0      
 18 19  2  0      
 19 20  1  0      
 20 21  1  0      
 21 22  1  0      
 22 23  1  0      
 22 24  1  0      
 24 25  1  0      
 25 26  1  0      
 20 26  1  0      
 26 27  1  0      
 26 28  1  0      
 28 29  1  0      
 29 30  1  0      
 13 30  1  0      
 19 30  1  0      
 30 31  1  0      
 22 32  1  0      
 32 33  1  0      
 32 34  2  0      
M  END
>  <Bioactivity>
Enoxolone (INN, BAN; also known as glycyrrhetinic acid) is a pentacyclic triterpenoid derivative of the beta-amyrin type obtained from the hydrolysis of glycyrrhizic acid, which was obtained from the 
herb liquorice. It is used in flavoring and it masks the bitter taste of drugs like aloe and quinine. It is effective in the treatment of peptic ulcer and also has expectorant (antitussive) properties
.

>  <CAS>
1449-05-4

>  <Col>
5

>  <Formula>
C30H46O4

>  <ID>
T2745

>  <Index>
344

>  <MOLENAME>
Glycyrrhetinic acid(Enoxolone)

>  <MolWt>
470.68

>  <Pathways>
Others

>  <Plate>
PLATE 005

>  <QR code>
1151479910

>  <Receptor>
Others

>  <Reference>
1. Parida PK, et al. Bioorg Med Chem Lett. 2014 Aug 15;24(16):3865-8. 

>  <Row>
C

>  <SMILES>
CC1(C)C(O)CCC2(C)C1CCC1(C)C2C(=O)C=C2C3CC(C)(CCC3(C)CCC12C)C(O)=O

>  <Target>
Others

>  <Weight>
10.2mg

$$$$
Lab-1.sdf
  ChemDraw05232018482D

 30 31  0  0  0  0  0  0  0  0999 V2000
    0.7145    0.0000    0.0000 C   0  0  0  0  0  0  0  0  0  0  0  0
    0.7145    0.0000    0.0000 C   0  0  0  0  0  0  0  0  0  0  0  0
   -0.0000    0.0000    0.0000 O   0  0  0  0  0  0  0  0  0  0  0  0
    1.4289    0.0000    0.0000 N   0  0  0  0  0  0  0  0  0  0  0  0
    1.4289    0.0000    0.0000 C   0  0  0  0  0  0  0  0  0  0  0  0
    2.1434    0.0000    0.0000 C   0  0  0  0  0  0  0  0  0  0  0  0
    2.8579    0.0000    0.0000 O   0  0  0  0  0  0  0  0  0  0  0  0
    2.1434    0.0000    0.0000 O   0  0  0  0  0  0  0  0  0  0  0  0
    1.4289    0.0000    0.0000 C   0  0  0  0  0  0  0  0  0  0  0  0
    1.4289    0.0000    0.0000 O   0  0  0  0  0  0  0  0  0  0  0  0
    0.7145    0.0000    0.0000 S   0  0  0  0  0  0  0  0  0  0  0  0
   -0.0000    0.0000    0.0000 O   0  0  0  0  0  0  0  0  0  0  0  0
    1.1270    0.0000    0.0000 O   0  0  0  0  0  0  0  0  0  0  0  0
    0.3020    0.0000    0.0000 O   0  0  0  0  0  0  0  0  0  0  0  0
    0.7145    0.0000    0.0000 C   0  0  0  0  0  0  0  0  0  0  0  0
   -0.0000    0.0000    0.0000 O   0  0  0  0  0  0  0  0  0  0  0  0
    0.7145    0.0000    0.0000 C   0  0  0  0  0  0  0  0  0  0  0  0
   -0.0000    0.0000    0.0000 O   0  0  0  0  0  0  0  0  0  0  0  0
   -0.7145    0.0000    0.0000 C   0  0  0  0  0  0  0  0  0  0  0  0
   -0.7145    0.0000    0.0000 O   0  0  0  0  0  0  0  0  0  0  0  0
   -1.4290    0.0000    0.0000 C   0  0  0  0  0  0  0  0  0  0  0  0
   -2.1434    0.0000    0.0000 C   0  0  0  0  0  0  0  0  0  0  0  0
   -2.8579    0.0000    0.0000 O   0  0  0  0  0  0  0  0  0  0  0  0
   -2.1434    0.0000    0.0000 C   0  0  0  0  0  0  0  0  0  0  0  0
   -2.8579    0.0000    0.0000 O   0  0  0  0  0  0  0  0  0  0  0  0
   -1.4290    0.0000    0.0000 C   0  0  0  0  0  0  0  0  0  0  0  0
   -1.4290    0.0000    0.0000 O   0  0  0  0  0  0  0  0  0  0  0  0
   -1.4290    0.0000    0.0000 C   0  0  0  0  0  0  0  0  0  0  0  0
   -2.1434    0.0000    0.0000 O   0  0  0  0  0  0  0  0  0  0  0  0
   -0.7145    0.0000    0.0000 O   0  0  0  0  0  0  0  0  0  0  0  0
  1  2  1  0      
  2  3  2  0      
  2  4  1  0      
  4  5  1  0      
  5  6  1  0      
  6  7  1  0      
  6  8  1  0      
  8  9  1  0      
  9 10  1  0      
 10 11  1  0      
 11 12  1  0      
 11 13  2  0      
 11 14  2  0      
  9 15  1  0      
 15 16  1  0      
 15 17  1  0      
  5 17  1  0      
 17 18  1  0      
 18 19  1  0      
 19 20  1  0      
 20 21  1  0      
 21 22  1  0      
 22 23  1  0      
 22 24  1  0      
 24 25  1  0      
 24 26  1  0      
 19 26  1  0      
 26 27  1  0      
 21 28  1  0      
 28 29  1  0      
 28 30  2  0      
M  END
>  <Bioactivity>
Extracted from shark bone;Store the product in sealed, cool and dry condition

>  <CAS>
9007-28-7

>  <Col>
6

>  <Formula>
C13H21NO15S

>  <ID>
T2980

>  <Index>
345

>  <MOLENAME>
Chondroitine sulfate

>  <MolWt>
463.37

>  <Pathways>
Others

>  <Plate>
PLATE 005

>  <QR code>
1151479909

>  <Receptor>
Others

>  <Reference>
1. Kakizaki I, et al.Carbohydr Polym. 2015 May 5;121:362-71. 

>  <Row>
C

>  <SMILES>
CC(=O)NC1C(O)OC(OS(O)(=O)=O)C(O)C1OC1OC(C(O)C(O)C1O)C(O)=O

>  <Target>
Others

>  <Weight>
10.2mg

$$$$
Lab-1.sdf
  ChemDraw05232018482D

 32 35  0  0  0  0  0  0  0  0999 V2000
   -3.5723    0.0000    0.0000 O   0  0  0  0  0  0  0  0  0  0  0  0
   -2.8579    0.0000    0.0000 C   0  0  0  0  0  0  0  0  0  0  0  0
   -2.8579    0.0000    0.0000 C   0  0  0  0  0  0  0  0  0  0  0  0
   -3.5723    0.0000    0.0000 O   0  0  0  0  0  0  0  0  0  0  0  0
   -2.1435    0.0000    0.0000 C   0  0  0  0  0  0  0  0  0  0  0  0
   -2.1435    0.0000    0.0000 O   0  0  0  0  0  0  0  0  0  0  0  0
   -1.4289    0.0000    0.0000 C   0  0  0  0  0  0  0  0  0  0  0  0
   -1.4289    0.0000    0.0000 C   0  0  0  0  0  0  0  0  0  0  0  0
   -2.1435    0.0000    0.0000 O   0  0  0  0  0  0  0  0  0  0  0  0
   -0.7146    0.0000    0.0000 C   0  0  0  0  0  0  0  0  0  0  0  0
   -0.7146    0.0000    0.0000 O   0  0  0  0  0  0  0  0  0  0  0  0
   -0.0001    0.0000    0.0000 C   0  0  0  0  0  0  0  0  0  0  0  0
    0.7144    0.0000    0.0000 C   0  0  0  0  0  0  0  0  0  0  0  0
    0.7144    0.0000    0.0000 O   0  0  0  0  0  0  0  0  0  0  0  0
    1.4289    0.0000    0.0000 C   0  0  0  0  0  0  0  0  0  0  0  0
    1.4289    0.0000    0.0000 C   0  0  0  0  0  0  0  0  0  0  0  0
    0.7144    0.0000    0.0000 O   0  0  0  0  0  0  0  0  0  0  0  0
   -0.0001    0.0000    0.0000 C   0  0  0  0  0  0  0  0  0  0  0  0
   -0.7146    0.0000    0.0000 C   0  0  0  0  0  0  0  0  0  0  0  0
    2.1433    0.0000    0.0000 C   0  0  0  0  0  0  0  0  0  0  0  0
    2.8578    0.0000    0.0000 C   0  0  0  0  0  0  0  0  0  0  0  0
    3.5723    0.0000    0.0000 C   0  0  0  0  0  0  0  0  0  0  0  0
    3.5723    0.0000    0.0000 C   0  0  0  0  0  0  0  0  0  0  0  0
    2.8578    0.0000    0.0000 C   0  0  0  0  0  0  0  0  0  0  0  0
    2.1433    0.0000    0.0000 C   0  0  0  0  0  0  0  0  0  0  0  0
   -1.4289    0.0000    0.0000 O   0  0  0  0  0  0  0  0  0  0  0  0
   -1.4289    0.0000    0.0000 C   0  0  0  0  0  0  0  0  0  0  0  0
   -2.1435    0.0000    0.0000 C   0  0  0  0  0  0  0  0  0  0  0  0
   -2.1435    0.0000    0.0000 O   0  0  0  0  0  0  0  0  0  0  0  0
   -0.7146    0.0000    0.0000 C   0  0  0  0  0  0  0  0  0  0  0  0
   -0.7146    0.0000    0.0000 O   0  0  0  0  0  0  0  0  0  0  0  0
   -0.0001    0.0000    0.0000 O   0  0  0  0  0  0  0  0  0  0  0  0
  1  2  1  0      
  2  3  1  0      
  3  4  1  0      
  3  5  1  0      
  5  6  1  0      
  6  7  1  0      
  7  8  2  0      
  8  9  1  0      
  8 10  1  0      
 10 11  1  0      
 10 12  2  0      
 12 13  1  0      
 13 14  2  0      
 13 15  1  0      
 15 16  2  0      
 16 17  1  0      
 17 18  1  0      
 12 18  1  0      
 18 19  2  0      
  7 19  1  0      
 16 20  1  0      
 20 21  2  0      
 21 22  1  0      
 22 23  2  0      
 23 24  1  0      
 24 25  2  0      
 20 25  1  0      
  5 26  1  0      
 26 27  1  0      
 27 28  1  0      
  2 28  1  0      
 28 29  1  0      
 27 30  1  0      
 30 31  1  0      
 30 32  2  0      
M  END
>  <Bioactivity>
Baicalin, one the effective compositions of scutellaria baicalensis, possesses multiple properities such as antioxidant, anti-tumor, anti-HIV, treating cardiovascular disease and so on.

>  <CAS>
21967-41-9

>  <Col>
7

>  <Formula>
C21H18O11

>  <ID>
T2775

>  <Index>
346

>  <MOLENAME>
Baicalin

>  <MolWt>
446.37

>  <Pathways>
Neuroscience

>  <Plate>
PLATE 005

>  <QR code>
1151479908

>  <Receptor>
GABAR

>  <Reference>
1. Chen JG, et al. J Steroid Biochem Mol Biol. 2015 May;149:11-6. 

>  <Row>
C

>  <SMILES>
OC1C(O)C(OC2=C(O)C(O)=C3C(=O)C=C(OC3=C2)C2=CC=CC=C2)OC(C1O)C(O)=O

>  <Target>
GABAR Agonist

>  <Weight>
10.2mg

$$$$
Lab-1.sdf
  ChemDraw05232018482D

 26 31  0  0  0  0  0  0  0  0999 V2000
    3.7788    0.0000    0.0000 C   0  0  0  0  0  0  0  0  0  0  0  0
    4.1143    0.0000    0.0000 O   0  0  0  0  0  0  0  0  0  0  0  0
    3.5012    0.0000    0.0000 C   0  0  0  0  0  0  0  0  0  0  0  0
    2.7868    0.0000    0.0000 C   0  0  0  0  0  0  0  0  0  0  0  0
    2.9583    0.0000    0.0000 O   0  0  0  0  0  0  0  0  0  0  0  0
    2.0724    0.0000    0.0000 C   0  0  0  0  0  0  0  0  0  0  0  0
    2.0724    0.0000    0.0000 C   0  0  0  0  0  0  0  0  0  0  0  0
    2.7868    0.0000    0.0000 C   0  0  0  0  0  0  0  0  0  0  0  0
    3.5012    0.0000    0.0000 C   0  0  0  0  0  0  0  0  0  0  0  0
    1.3579    0.0000    0.0000 C   0  0  0  0  0  0  0  0  0  0  0  0
    1.2717    0.0000    0.0000 O   0  0  0  0  0  0  0  0  0  0  0  0
    0.4647    0.0000    0.0000 C   0  0  0  0  0  0  0  0  0  0  0  0
    0.0522    0.0000    0.0000 C   0  0  0  0  0  0  0  0  0  0  0  0
    0.6042    0.0000    0.0000 C   0  0  0  0  0  0  0  0  0  0  0  0
    0.1917    0.0000    0.0000 C   0  0  0  0  0  0  0  0  0  0  0  0
   -0.6152    0.0000    0.0000 O   0  0  0  0  0  0  0  0  0  0  0  0
   -0.7015    0.0000    0.0000 C   0  0  0  0  0  0  0  0  0  0  0  0
   -1.4159    0.0000    0.0000 C   0  0  0  0  0  0  0  0  0  0  0  0
   -2.1304    0.0000    0.0000 C   0  0  0  0  0  0  0  0  0  0  0  0
   -2.8448    0.0000    0.0000 C   0  0  0  0  0  0  0  0  0  0  0  0
   -2.8448    0.0000    0.0000 C   0  0  0  0  0  0  0  0  0  0  0  0
   -3.6294    0.0000    0.0000 O   0  0  0  0  0  0  0  0  0  0  0  0
   -4.1143    0.0000    0.0000 C   0  0  0  0  0  0  0  0  0  0  0  0
   -3.6294    0.0000    0.0000 O   0  0  0  0  0  0  0  0  0  0  0  0
   -2.1304    0.0000    0.0000 C   0  0  0  0  0  0  0  0  0  0  0  0
   -1.4159    0.0000    0.0000 C   0  0  0  0  0  0  0  0  0  0  0  0
  1  2  1  0      
  2  3  1  0      
  3  4  2  0      
  4  5  1  0      
  1  5  1  0      
  4  6  1  0      
  6  7  2  0      
  7  8  1  0      
  8  9  2  0      
  3  9  1  0      
  7 10  1  0      
 10 11  1  0      
 11 12  1  0      
 12 13  1  0      
 13 14  1  0      
 10 14  1  0      
 14 15  1  0      
 15 16  1  0      
 16 17  1  0      
 13 17  1  0      
 17 18  1  0      
 18 19  2  0      
 19 20  1  0      
 20 21  2  0      
 21 22  1  0      
 22 23  1  0      
 23 24  1  0      
 20 24  1  0      
 21 25  1  0      
 25 26  2  0      
 18 26  1  0      
M  END
>  <Bioactivity>
Extracted from Sesamum indicum L.;Suitability:Chloroform,benzene,acetic acid,acetone;Store the product in sealed,cool and dry condition

>  <CAS>
607-80-7

>  <Col>
8

>  <Formula>
C20H18O6

>  <ID>
T2919

>  <Index>
347

>  <MOLENAME>
Sesamin

>  <MolWt>
354.36

>  <Pathways>
Others

>  <Plate>
PLATE 005

>  <QR code>
1151479907

>  <Receptor>
Others

>  <Reference>
1. Ma L, et al. Biochem Biophys Res Commun. 2015 May 29;461(2):230-6.

>  <Row>
C

>  <SMILES>
C1OC2=C(O1)C=C(C=C2)C1OCC2C1COC2C1=CC2=C(OCO2)C=C1

>  <Target>
Others

>  <Weight>
9.9mg

$$$$
Lab-1.sdf
  ChemDraw05232018482D

 15 16  0  0  0  0  0  0  0  0999 V2000
   -2.1433    0.0000    0.0000 C   0  0  0  0  0  0  0  0  0  0  0  0
   -2.1433    0.0000    0.0000 O   0  0  0  0  0  0  0  0  0  0  0  0
   -1.4289    0.0000    0.0000 C   0  0  0  0  0  0  0  0  0  0  0  0
   -1.4289    0.0000    0.0000 C   0  0  0  0  0  0  0  0  0  0  0  0
   -2.1433    0.0000    0.0000 O   0  0  0  0  0  0  0  0  0  0  0  0
   -2.1433    0.0000    0.0000 C   0  0  0  0  0  0  0  0  0  0  0  0
   -0.7145    0.0000    0.0000 C   0  0  0  0  0  0  0  0  0  0  0  0
   -0.0000    0.0000    0.0000 C   0  0  0  0  0  0  0  0  0  0  0  0
    0.7145    0.0000    0.0000 C   0  0  0  0  0  0  0  0  0  0  0  0
    1.4290    0.0000    0.0000 C   0  0  0  0  0  0  0  0  0  0  0  0
    1.4290    0.0000    0.0000 C   0  0  0  0  0  0  0  0  0  0  0  0
    2.1433    0.0000    0.0000 O   0  0  0  0  0  0  0  0  0  0  0  0
    0.7145    0.0000    0.0000 O   0  0  0  0  0  0  0  0  0  0  0  0
   -0.0000    0.0000    0.0000 C   0  0  0  0  0  0  0  0  0  0  0  0
   -0.7145    0.0000    0.0000 C   0  0  0  0  0  0  0  0  0  0  0  0
  1  2  1  0      
  2  3  1  0      
  3  4  2  0      
  4  5  1  0      
  5  6  1  0      
  4  7  1  0      
  7  8  2  0      
  8  9  1  0      
  9 10  2  0      
 10 11  1  0      
 11 12  2  0      
 11 13  1  0      
 13 14  1  0      
  8 14  1  0      
 14 15  2  0      
  3 15  1  0      
M  END
>  <Bioactivity>
Extracted from A.scoparia Waldst.e Kit seeds;Store the product in sealed, cool and dry condition.

>  <CAS>
120-08-1

>  <Col>
9

>  <Formula>
C11H10O4

>  <ID>
T2729

>  <Index>
348

>  <MOLENAME>
Scoparone

>  <MolWt>
206.2

>  <Pathways>
Others

>  <Plate>
PLATE 005

>  <QR code>
1151479906

>  <Receptor>
Others

>  <Reference>
1. Lee SH, Jang HD. Exp Cell Res. 2015 Feb 15;331(2):267-77.

>  <Row>
C

>  <SMILES>
COC1=C(OC)C=C2C=CC(=O)OC2=C1

>  <Target>
Others

>  <Weight>
10.1mg

$$$$
Lab-1.sdf
  ChemDraw05232018482D

 12 12  0  0  0  0  0  0  0  0999 V2000
   -1.0717    0.0000    0.0000 O   0  0  0  0  0  0  0  0  0  0  0  0
   -0.3572    0.0000    0.0000 C   0  0  0  0  0  0  0  0  0  0  0  0
    0.3573    0.0000    0.0000 O   0  0  0  0  0  0  0  0  0  0  0  0
   -0.3572    0.0000    0.0000 C   0  0  0  0  0  0  0  0  0  0  0  0
    0.3573    0.0000    0.0000 C   0  0  0  0  0  0  0  0  0  0  0  0
    0.3573    0.0000    0.0000 C   0  0  0  0  0  0  0  0  0  0  0  0
    1.0717    0.0000    0.0000 C   0  0  0  0  0  0  0  0  0  0  0  0
    1.0717    0.0000    0.0000 C   0  0  0  0  0  0  0  0  0  0  0  0
    0.3573    0.0000    0.0000 C   0  0  0  0  0  0  0  0  0  0  0  0
    0.3573    0.0000    0.0000 O   0  0  0  0  0  0  0  0  0  0  0  0
   -0.3572    0.0000    0.0000 C   0  0  0  0  0  0  0  0  0  0  0  0
   -0.3572    0.0000    0.0000 C   0  0  0  0  0  0  0  0  0  0  0  0
  1  2  1  0      
  2  3  2  0      
  4  2  1  4      
  4  5  2  0      
  5  6  1  0      
  6  7  2  0      
  7  8  1  0      
  8  9  2  0      
  9 10  1  0      
  9 11  1  0      
 11 12  2  0      
  6 12  1  0      
M  END
>  <Bioactivity>
Actions Hydroxycinnamic acid found in many fruits and vegetables. Other Notes :Predominantly trans isomer. Packaging: 1,5,10,25 g in poly bottle

>  <CAS>
501-98-4

>  <Col>
10

>  <Formula>
C9H8O3

>  <ID>
T2863

>  <Index>
349

>  <MOLENAME>
p-Coumaric acid

>  <MolWt>
164.16

>  <Pathways>
Others

>  <Plate>
PLATE 005

>  <QR code>
1151479905

>  <Receptor>
Others

>  <Reference>
1. Dang YJ, Zhu CY. J Food Sci. 2015 Mar;80(3):C504-9. 

>  <Row>
C

>  <SMILES>
OC(=O)C=CC1=CC=C(O)C=C1

>  <Target>
Others

>  <Weight>
10.3mg

$$$$
Lab-1.sdf
  ChemDraw05232018482D

 11 10  0  0  0  0  0  0  0  0999 V2000
   -2.3128    0.0000    0.0000 Cl  0  0  0  0  0  0  0  0  0  0  0  0
    1.5984    0.0000    0.0000 C   0  0  0  0  0  0  0  0  0  0  0  0
    1.5984    0.0000    0.0000 N   0  3  0  0  0  0  0  0  0  0  0  0
    2.3128    0.0000    0.0000 C   0  0  0  0  0  0  0  0  0  0  0  0
    2.3128    0.0000    0.0000 C   0  0  0  0  0  0  0  0  0  0  0  0
    1.5984    0.0000    0.0000 C   0  0  0  0  0  0  0  0  0  0  0  0
    0.8839    0.0000    0.0000 C   0  0  0  0  0  0  0  0  0  0  0  0
    0.8839    0.0000    0.0000 C   0  0  0  0  0  0  0  0  0  0  0  0
    0.1695    0.0000    0.0000 C   0  0  0  0  0  0  0  0  0  0  0  0
    0.1695    0.0000    0.0000 O   0  5  0  0  0  0  0  0  0  0  0  0
   -0.5450    0.0000    0.0000 O   0  0  0  0  0  0  0  0  0  0  0  0
  2  3  1  0      
  3  4  2  0      
  4  5  1  0      
  5  6  2  0      
  6  7  1  0      
  7  8  2  0      
  3  8  1  0      
  7  9  1  0      
  9 10  1  0      
  9 11  2  0      
M  CHG  2   3   1  10  -1
M  END
>  <Bioactivity>
Extracted from Trigonellafoenum-graecumL. seeds;Store the product in sealed, cool and dry condition.

>  <CAS>
6138-41-6

>  <Col>
11

>  <Formula>
C7H8ClNO2

>  <ID>
T2927

>  <Index>
350

>  <MOLENAME>
Trigonelline hydrochloride

>  <MolWt>
173.6

>  <Pathways>
Others

>  <Plate>
PLATE 005

>  <QR code>
1151479904

>  <Receptor>
Others

>  <Reference>
1. Zhang DF, et al. Asian Pac J Trop Med. 2015 Aug;8(8):651-4. 

>  <Row>
C

>  <SMILES>
Cl.C[N+]1=CC=CC(=C1)C([O-])=O

>  <Target>
Others

>  <Weight>
10.2mg

$$$$
Lab-1.sdf
  ChemDraw05232018482D

  9  9  0  0  0  0  0  0  0  0999 V2000
    0.8059    0.0000    0.0000 O   0  0  0  0  0  0  0  0  0  0  0  0
    0.0915    0.0000    0.0000 C   0  0  0  0  0  0  0  0  0  0  0  0
    0.0915    0.0000    0.0000 C   0  0  0  0  0  0  0  0  0  0  0  0
    0.7589    0.0000    0.0000 C   0  0  0  0  0  0  0  0  0  0  0  0
    0.5040    0.0000    0.0000 C   0  0  0  0  0  0  0  0  0  0  0  0
   -0.3209    0.0000    0.0000 C   0  0  0  0  0  0  0  0  0  0  0  0
   -0.5759    0.0000    0.0000 O   0  0  0  0  0  0  0  0  0  0  0  0
   -0.8059    0.0000    0.0000 C   0  0  0  0  0  0  0  0  0  0  0  0
   -0.4703    0.0000    0.0000 O   0  0  0  0  0  0  0  0  0  0  0  0
  1  2  1  0      
  2  3  1  0      
  3  4  2  0      
  4  5  1  0      
  5  6  2  0      
  6  7  1  0      
  3  7  1  0      
  6  8  1  0      
  8  9  2  0      
M  END
>  <Bioactivity>
Extracted from Cornus officinalis Sieb. et Zucc.;Suitability:Water,ethanol,ethyl ether,acetone,carbon tetrachloride;Store the product in sealed,cool and dry condition

>  <CAS>
67-47-0

>  <Col>
2

>  <Formula>
C6H6O3

>  <ID>
T2943

>  <Index>
351

>  <MOLENAME>
5-Hydroxymethyl-2-furaldehyde

>  <MolWt>
126.11

>  <Pathways>
Others

>  <Plate>
PLATE 005

>  <QR code>
1151479892

>  <Receptor>
Others

>  <Reference>
1. Xu XB, et al. J Dairy Sci. 2014 Nov;97(11):6810-3.

>  <Row>
D

>  <SMILES>
OCC1=CC=C(O1)C=O

>  <Target>
Others

>  <Weight>
10.3mg

$$$$
Lab-1.sdf
  ChemDraw05232018482D

 25 27  0  0  0  0  0  0  0  0999 V2000
   -1.2448    0.0000    0.0000 C   0  0  0  0  0  0  0  0  0  0  0  0
   -0.7145    0.0000    0.0000 C   0  0  0  0  0  0  0  0  0  0  0  0
   -0.1842    0.0000    0.0000 C   0  0  0  0  0  0  0  0  0  0  0  0
   -0.4663    0.0000    0.0000 O   0  0  0  0  0  0  0  0  0  0  0  0
   -1.4289    0.0000    0.0000 C   0  0  0  0  0  0  0  0  0  0  0  0
   -2.1434    0.0000    0.0000 O   0  0  0  0  0  0  0  0  0  0  0  0
   -1.4289    0.0000    0.0000 C   0  0  0  0  0  0  0  0  0  0  0  0
   -0.7145    0.0000    0.0000 C   0  0  0  0  0  0  0  0  0  0  0  0
    0.0000    0.0000    0.0000 C   0  0  0  0  0  0  0  0  0  0  0  0
    0.0000    0.0000    0.0000 C   0  0  0  0  0  0  0  0  0  0  0  0
    0.7145    0.0000    0.0000 C   0  0  0  0  0  0  0  0  0  0  0  0
    0.7145    0.0000    0.0000 C   0  0  0  0  0  0  0  0  0  0  0  0
    0.0000    0.0000    0.0000 C   0  0  0  0  0  0  0  0  0  0  0  0
    0.0000    0.0000    0.0000 C   0  0  0  0  0  0  0  0  0  0  0  0
   -0.6674    0.0000    0.0000 C   0  0  0  0  0  0  0  0  0  0  0  0
   -1.4520    0.0000    0.0000 O   0  0  0  0  0  0  0  0  0  0  0  0
   -0.4125    0.0000    0.0000 C   0  0  0  0  0  0  0  0  0  0  0  0
    0.4125    0.0000    0.0000 O   0  0  0  0  0  0  0  0  0  0  0  0
    0.6675    0.0000    0.0000 C   0  0  0  0  0  0  0  0  0  0  0  0
    1.4521    0.0000    0.0000 O   0  0  0  0  0  0  0  0  0  0  0  0
    1.4290    0.0000    0.0000 C   0  0  0  0  0  0  0  0  0  0  0  0
    2.1434    0.0000    0.0000 C   0  0  0  0  0  0  0  0  0  0  0  0
    1.4290    0.0000    0.0000 C   0  0  0  0  0  0  0  0  0  0  0  0
    0.7145    0.0000    0.0000 C   0  0  0  0  0  0  0  0  0  0  0  0
    0.0000    0.0000    0.0000 C   0  0  0  0  0  0  0  0  0  0  0  0
  1  2  1  0      
  2  3  1  0      
  3  4  1  0      
  2  5  1  0      
  5  6  1  0      
  5  7  1  0      
  7  8  1  0      
  8  9  1  0      
  9 10  1  0      
  9 11  1  0      
 11 12  1  0      
 13 12  1  4      
 13 14  2  0      
 14 15  1  0      
 15 16  1  0      
 15 17  1  0      
 17 18  1  0      
 18 19  1  0      
 14 19  1  0      
 19 20  2  0      
 11 21  1  0      
 21 22  2  0      
 21 23  1  0      
 23 24  1  0      
 24 25  1  0      
  2 25  1  0      
  9 25  1  0      
M  END
>  <Bioactivity>
Andrographolide(Andrographis) is an irreversible antagonist of NF-&kappa;B and prevents in vitro T cell activation; displays antiviral, antiinflammatory, antiapoptotic, and antihyperglycemic propertie
s.

>  <CAS>
5508-58-7

>  <Col>
3

>  <Formula>
C20H30O5

>  <ID>
T2898

>  <Index>
352

>  <MOLENAME>
Andrographolide

>  <MolWt>
350.44

>  <Pathways>
Immunology/Inflammation

>  <Plate>
PLATE 005

>  <QR code>
1151479893

>  <Receptor>
NF-¦ÊB

>  <Reference>
1. Li GF, Qin YH, Du PQ. Life Sci. 2015 Sep 1;136:67-72. 

>  <Row>
D

>  <SMILES>
CC1(CO)C(O)CCC2(C)C(CC=C3C(O)COC3=O)C(=C)CCC12

>  <Target>
NF-¦ÊB inhibitor

>  <Weight>
10.1mg

$$$$
Lab-1.sdf
  ChemDraw05232018482D

 36 40  0  0  0  0  0  0  0  0999 V2000
   -3.7125    0.0000    0.0000 C   0  0  0  0  0  0  0  0  0  0  0  0
   -3.3000    0.0000    0.0000 C   0  0  0  0  0  0  0  0  0  0  0  0
   -3.7125    0.0000    0.0000 C   0  0  0  0  0  0  0  0  0  0  0  0
   -3.3000    0.0000    0.0000 C   0  0  0  0  0  0  0  0  0  0  0  0
   -2.4750    0.0000    0.0000 C   0  0  0  0  0  0  0  0  0  0  0  0
   -2.0625    0.0000    0.0000 C   0  0  0  0  0  0  0  0  0  0  0  0
   -1.2375    0.0000    0.0000 C   0  0  0  0  0  0  0  0  0  0  0  0
   -0.8250    0.0000    0.0000 C   0  0  0  0  0  0  0  0  0  0  0  0
   -0.4125    0.0000    0.0000 C   0  0  0  0  0  0  0  0  0  0  0  0
   -1.2375    0.0000    0.0000 C   0  0  0  0  0  0  0  0  0  0  0  0
   -0.8250    0.0000    0.0000 C   0  0  0  0  0  0  0  0  0  0  0  0
   -0.0000    0.0000    0.0000 C   0  0  0  0  0  0  0  0  0  0  0  0
    0.4125    0.0000    0.0000 C   0  0  0  0  0  0  0  0  0  0  0  0
    1.2375    0.0000    0.0000 C   0  0  0  0  0  0  0  0  0  0  0  0
    0.8250    0.0000    0.0000 C   0  0  0  0  0  0  0  0  0  0  0  0
    1.6500    0.0000    0.0000 C   0  0  0  0  0  0  0  0  0  0  0  0
    2.4750    0.0000    0.0000 C   0  0  0  0  0  0  0  0  0  0  0  0
    2.8875    0.0000    0.0000 O   0  0  0  0  0  0  0  0  0  0  0  0
    2.8875    0.0000    0.0000 C   0  0  0  0  0  0  0  0  0  0  0  0
    3.7125    0.0000    0.0000 O   0  0  0  0  0  0  0  0  0  0  0  0
    2.4750    0.0000    0.0000 C   0  0  0  0  0  0  0  0  0  0  0  0
    2.3317    0.0000    0.0000 C   0  0  0  0  0  0  0  0  0  0  0  0
    3.2502    0.0000    0.0000 C   0  0  0  0  0  0  0  0  0  0  0  0
    3.3935    0.0000    0.0000 O   0  0  0  0  0  0  0  0  0  0  0  0
    1.6500    0.0000    0.0000 C   0  0  0  0  0  0  0  0  0  0  0  0
    1.2375    0.0000    0.0000 C   0  0  0  0  0  0  0  0  0  0  0  0
    1.6500    0.0000    0.0000 O   0  0  0  0  0  0  0  0  0  0  0  0
    0.4125    0.0000    0.0000 C   0  0  0  0  0  0  0  0  0  0  0  0
   -0.0000    0.0000    0.0000 C   0  0  0  0  0  0  0  0  0  0  0  0
    0.0862    0.0000    0.0000 C   0  0  0  0  0  0  0  0  0  0  0  0
   -2.0625    0.0000    0.0000 C   0  0  0  0  0  0  0  0  0  0  0  0
   -2.4750    0.0000    0.0000 C   0  0  0  0  0  0  0  0  0  0  0  0
   -2.0625    0.0000    0.0000 C   0  0  0  0  0  0  0  0  0  0  0  0
   -2.8875    0.0000    0.0000 C   0  0  0  0  0  0  0  0  0  0  0  0
   -3.7125    0.0000    0.0000 O   0  0  0  0  0  0  0  0  0  0  0  0
   -2.4750    0.0000    0.0000 O   0  0  0  0  0  0  0  0  0  0  0  0
  1  2  1  0      
  2  3  1  0      
  3  4  1  0      
  4  5  1  0      
  5  6  1  0      
  6  7  1  0      
  7  8  1  0      
  8  9  1  0      
  8 10  1  0      
 10 11  2  0      
 11 12  1  0      
 12 13  1  0      
 13 14  1  0      
 14 15  1  0      
 14 16  1  0      
 16 17  1  0      
 17 18  1  0      
 17 19  1  0      
 19 20  1  0      
 19 21  1  0      
 21 22  1  0      
 21 23  1  0      
 23 24  1  0      
 21 25  1  0      
 14 25  1  0      
 25 26  1  0      
 26 27  1  0      
 26 28  1  0      
 28 29  1  0      
  8 29  1  0      
 13 29  1  0      
 29 30  1  0      
 10 31  1  0      
  5 31  1  0      
 31 32  1  0      
  2 32  1  0      
 32 33  1  0      
  5 34  1  0      
 34 35  1  0      
 34 36  2  0      
M  END
>  <Bioactivity>
Extracted from  whole herb of Centella asiatica;Store the product in sealed, cool and dry condition.

>  <CAS>
18449-41-7

>  <Col>
4

>  <Formula>
C30H48O6

>  <ID>
T2758

>  <Index>
353

>  <MOLENAME>
Madecassic acid

>  <MolWt>
504.71

>  <Pathways>
Others

>  <Plate>
PLATE 005

>  <QR code>
1151479894

>  <Receptor>
Others

>  <Reference>
1. Zhang H, et al. J BUON. 2014 Apr-Jun;19(2):372-6.

>  <Row>
D

>  <SMILES>
CC1CCC2(CCC3(C)C(=CCC4C5(C)CC(O)C(O)C(C)(CO)C5C(O)CC34C)C2C1C)C(O)=O

>  <Target>
Others

>  <Weight>
10.2mg

$$$$
Lab-1.sdf
  ChemDraw05232018482D

 18 19  0  0  0  0  0  0  0  0999 V2000
   -2.5006    0.0000    0.0000 C   0  0  0  0  0  0  0  0  0  0  0  0
   -1.7861    0.0000    0.0000 O   0  0  0  0  0  0  0  0  0  0  0  0
   -1.0717    0.0000    0.0000 C   0  0  0  0  0  0  0  0  0  0  0  0
   -0.3572    0.0000    0.0000 C   0  0  0  0  0  0  0  0  0  0  0  0
   -0.3572    0.0000    0.0000 C   0  0  0  0  0  0  0  0  0  0  0  0
   -1.0717    0.0000    0.0000 C   0  0  0  0  0  0  0  0  0  0  0  0
   -1.0717    0.0000    0.0000 C   0  0  0  0  0  0  0  0  0  0  0  0
   -0.3572    0.0000    0.0000 C   0  0  0  0  0  0  0  0  0  0  0  0
   -1.7861    0.0000    0.0000 C   0  0  0  0  0  0  0  0  0  0  0  0
    0.3572    0.0000    0.0000 C   0  0  0  0  0  0  0  0  0  0  0  0
    0.3572    0.0000    0.0000 C   0  0  0  0  0  0  0  0  0  0  0  0
    1.0716    0.0000    0.0000 C   0  0  0  0  0  0  0  0  0  0  0  0
    1.7861    0.0000    0.0000 C   0  0  0  0  0  0  0  0  0  0  0  0
    1.7861    0.0000    0.0000 C   0  0  0  0  0  0  0  0  0  0  0  0
    2.5006    0.0000    0.0000 O   0  0  0  0  0  0  0  0  0  0  0  0
    1.0716    0.0000    0.0000 O   0  0  0  0  0  0  0  0  0  0  0  0
   -0.3572    0.0000    0.0000 C   0  0  0  0  0  0  0  0  0  0  0  0
   -1.0717    0.0000    0.0000 C   0  0  0  0  0  0  0  0  0  0  0  0
  1  2  1  0      
  2  3  1  0      
  3  4  2  0      
  4  5  1  0      
  5  6  1  0      
  6  7  2  0      
  7  8  1  0      
  7  9  1  0      
  4 10  1  0      
 10 11  2  0      
 11 12  1  0      
 12 13  2  0      
 13 14  1  0      
 14 15  2  0      
 14 16  1  0      
 10 16  1  0      
 11 17  1  0      
 17 18  2  0      
  3 18  1  0      
M  END
>  <Bioactivity>
Osthole(NSC 31868, Osthol), a coumarin-like derivative extracted from Chinese herbs, has been shown to stimulate osteoblast proliferation and differentiation, anti-inflamatory.

>  <CAS>
484-12-8

>  <Col>
5

>  <Formula>
C15H16O3

>  <ID>
T2848

>  <Index>
354

>  <MOLENAME>
Osthole

>  <MolWt>
244.29

>  <Pathways>
Others

>  <Plate>
PLATE 005

>  <QR code>
1151479895

>  <Receptor>
Others

>  <Reference>
1. Ko FN, et al. Thromb Haemost, 1989, 62(3), 996-999.

>  <Row>
D

>  <SMILES>
COC1=C(CC=C(C)C)C2=C(C=CC(=O)O2)C=C1

>  <Target>
Others

>  <Weight>
9.9mg

$$$$
Lab-1.sdf
  ChemDraw05232018482D

 21 22  0  0  0  0  0  0  0  0999 V2000
   -1.4289    0.0000    0.0000 O   0  0  0  0  0  0  0  0  0  0  0  0
   -0.7144    0.0000    0.0000 C   0  0  0  0  0  0  0  0  0  0  0  0
   -0.7144    0.0000    0.0000 C   0  0  0  0  0  0  0  0  0  0  0  0
    0.0001    0.0000    0.0000 O   0  0  0  0  0  0  0  0  0  0  0  0
    0.0001    0.0000    0.0000 C   0  0  0  0  0  0  0  0  0  0  0  0
    0.7144    0.0000    0.0000 O   0  0  0  0  0  0  0  0  0  0  0  0
    0.7144    0.0000    0.0000 C   0  0  0  0  0  0  0  0  0  0  0  0
    1.4289    0.0000    0.0000 C   0  0  0  0  0  0  0  0  0  0  0  0
    1.4289    0.0000    0.0000 C   0  0  0  0  0  0  0  0  0  0  0  0
    2.1434    0.0000    0.0000 C   0  0  0  0  0  0  0  0  0  0  0  0
    2.1434    0.0000    0.0000 C   0  0  0  0  0  0  0  0  0  0  0  0
    1.4289    0.0000    0.0000 C   0  0  0  0  0  0  0  0  0  0  0  0
    1.4289    0.0000    0.0000 O   0  0  0  0  0  0  0  0  0  0  0  0
    0.7144    0.0000    0.0000 C   0  0  0  0  0  0  0  0  0  0  0  0
    0.7144    0.0000    0.0000 C   0  0  0  0  0  0  0  0  0  0  0  0
   -0.7144    0.0000    0.0000 C   0  0  0  0  0  0  0  0  0  0  0  0
   -0.7144    0.0000    0.0000 O   0  0  0  0  0  0  0  0  0  0  0  0
   -1.4289    0.0000    0.0000 C   0  0  0  0  0  0  0  0  0  0  0  0
   -2.1434    0.0000    0.0000 O   0  0  0  0  0  0  0  0  0  0  0  0
   -1.4289    0.0000    0.0000 C   0  0  0  0  0  0  0  0  0  0  0  0
   -2.1434    0.0000    0.0000 O   0  0  0  0  0  0  0  0  0  0  0  0
  1  2  1  0      
  2  3  1  0      
  3  4  1  0      
  4  5  1  0      
  5  6  1  0      
  6  7  1  0      
  7  8  1  0      
  8  9  1  0      
  9 10  2  0      
 10 11  1  0      
 11 12  2  0      
 12 13  1  0      
 12 14  1  0      
 14 15  2  0      
  9 15  1  0      
  5 16  1  0      
 16 17  1  0      
 16 18  1  0      
 18 19  1  0      
 18 20  1  0      
  3 20  1  0      
 20 21  1  0      
M  END
>  <Bioactivity>
Salidroside is a bioactive phenolic glycoside compound isolated from Rhodiola crenulata.

>  <CAS>
10338-51-9

>  <Col>
6

>  <Formula>
C14H20O7

>  <ID>
T2717

>  <Index>
355

>  <MOLENAME>
Salidroside

>  <MolWt>
300.3

>  <Pathways>
Others

>  <Plate>
PLATE 005

>  <QR code>
1151479896

>  <Receptor>
Others

>  <Reference>
1. Hu X, et al. Cell Biol Toxicol, 2010, 26(6), 499-507.

>  <Row>
D

>  <SMILES>
OCC1OC(OCCC2=CC=C(O)C=C2)C(O)C(O)C1O

>  <Target>
Others

>  <Weight>
10.2mg

$$$$
Lab-1.sdf
  ChemDraw05232018482D

 22 26  0  0  0  0  0  0  0  0999 V2000
   -1.6368    0.0000    0.0000 O   0  0  0  0  0  0  0  0  0  0  0  0
   -1.3646    0.0000    0.0000 C   0  0  0  0  0  0  0  0  0  0  0  0
   -0.5541    0.0000    0.0000 N   0  0  0  0  0  0  0  0  0  0  0  0
   -0.0157    0.0000    0.0000 C   0  0  0  0  0  0  0  0  0  0  0  0
    0.7949    0.0000    0.0000 C   0  0  0  0  0  0  0  0  0  0  0  0
    1.0670    0.0000    0.0000 C   0  0  0  0  0  0  0  0  0  0  0  0
    0.5286    0.0000    0.0000 C   0  0  0  0  0  0  0  0  0  0  0  0
    0.9568    0.0000    0.0000 N   0  0  0  0  0  0  0  0  0  0  0  0
    1.7598    0.0000    0.0000 C   0  0  0  0  0  0  0  0  0  0  0  0
    2.4377    0.0000    0.0000 C   0  0  0  0  0  0  0  0  0  0  0  0
    3.1838    0.0000    0.0000 C   0  0  0  0  0  0  0  0  0  0  0  0
    3.2520    0.0000    0.0000 C   0  0  0  0  0  0  0  0  0  0  0  0
    2.5740    0.0000    0.0000 C   0  0  0  0  0  0  0  0  0  0  0  0
    1.8279    0.0000    0.0000 C   0  0  0  0  0  0  0  0  0  0  0  0
   -0.2819    0.0000    0.0000 C   0  0  0  0  0  0  0  0  0  0  0  0
   -0.8203    0.0000    0.0000 N   0  0  0  0  0  0  0  0  0  0  0  0
   -1.6309    0.0000    0.0000 C   0  0  0  0  0  0  0  0  0  0  0  0
   -2.1693    0.0000    0.0000 C   0  0  0  0  0  0  0  0  0  0  0  0
   -2.9798    0.0000    0.0000 C   0  0  0  0  0  0  0  0  0  0  0  0
   -3.2520    0.0000    0.0000 C   0  0  0  0  0  0  0  0  0  0  0  0
   -2.7136    0.0000    0.0000 C   0  0  0  0  0  0  0  0  0  0  0  0
   -1.9030    0.0000    0.0000 C   0  0  0  0  0  0  0  0  0  0  0  0
  1  2  2  0      
  2  3  1  0      
  3  4  1  0      
  4  5  1  0      
  5  6  1  0      
  6  7  2  0      
  7  8  1  0      
  8  9  1  0      
  9 10  2  0      
 10 11  1  0      
 11 12  2  0      
 12 13  1  0      
 13 14  2  0      
  6 14  1  0      
  9 14  1  0      
  7 15  1  0      
  3 15  1  0      
 15 16  2  0      
 16 17  1  0      
 17 18  2  0      
 18 19  1  0      
 19 20  2  0      
 20 21  1  0      
 21 22  2  0      
  2 22  1  0      
 17 22  1  0      
M  END
>  <Bioactivity>
Actions Delayed rectifier K+ channel blocker. Inhibits platelet aggregation; vasoldilator

>  <CAS>
84-26-4

>  <Col>
7

>  <Formula>
C18H13N3O

>  <ID>
T2972

>  <Index>
356

>  <MOLENAME>
Rutaecarpine

>  <MolWt>
287.32

>  <Pathways>
Others

>  <Plate>
PLATE 005

>  <QR code>
1151479897

>  <Receptor>
Others

>  <Reference>
1. Lee SH, et al. Molecules, 2008, 13(2), 272-300.

>  <Row>
D

>  <SMILES>
O=C1N2CCC3=C(NC4=CC=CC=C34)C2=NC2=CC=CC=C12

>  <Target>
Others

>  <Weight>
10.1mg

$$$$
Lab-1.sdf
  ChemDraw05232018482D

 35 39  0  0  0  0  0  0  0  0999 V2000
   -3.7125    0.0000    0.0000 C   0  0  0  0  0  0  0  0  0  0  0  0
   -3.3000    0.0000    0.0000 C   0  0  0  0  0  0  0  0  0  0  0  0
   -3.7125    0.0000    0.0000 C   0  0  0  0  0  0  0  0  0  0  0  0
   -3.3000    0.0000    0.0000 C   0  0  0  0  0  0  0  0  0  0  0  0
   -2.4750    0.0000    0.0000 C   0  0  0  0  0  0  0  0  0  0  0  0
   -2.0625    0.0000    0.0000 C   0  0  0  0  0  0  0  0  0  0  0  0
   -1.2375    0.0000    0.0000 C   0  0  0  0  0  0  0  0  0  0  0  0
   -0.8250    0.0000    0.0000 C   0  0  0  0  0  0  0  0  0  0  0  0
   -0.4125    0.0000    0.0000 C   0  0  0  0  0  0  0  0  0  0  0  0
   -1.2375    0.0000    0.0000 C   0  0  0  0  0  0  0  0  0  0  0  0
   -0.8250    0.0000    0.0000 C   0  0  0  0  0  0  0  0  0  0  0  0
   -0.0000    0.0000    0.0000 C   0  0  0  0  0  0  0  0  0  0  0  0
    0.4125    0.0000    0.0000 C   0  0  0  0  0  0  0  0  0  0  0  0
    1.2375    0.0000    0.0000 C   0  0  0  0  0  0  0  0  0  0  0  0
    0.8250    0.0000    0.0000 C   0  0  0  0  0  0  0  0  0  0  0  0
    1.6500    0.0000    0.0000 C   0  0  0  0  0  0  0  0  0  0  0  0
    2.4750    0.0000    0.0000 C   0  0  0  0  0  0  0  0  0  0  0  0
    2.8875    0.0000    0.0000 O   0  0  0  0  0  0  0  0  0  0  0  0
    2.8875    0.0000    0.0000 C   0  0  0  0  0  0  0  0  0  0  0  0
    3.7125    0.0000    0.0000 O   0  0  0  0  0  0  0  0  0  0  0  0
    2.4750    0.0000    0.0000 C   0  0  0  0  0  0  0  0  0  0  0  0
    2.3317    0.0000    0.0000 C   0  0  0  0  0  0  0  0  0  0  0  0
    3.2502    0.0000    0.0000 C   0  0  0  0  0  0  0  0  0  0  0  0
    3.3935    0.0000    0.0000 O   0  0  0  0  0  0  0  0  0  0  0  0
    1.6500    0.0000    0.0000 C   0  0  0  0  0  0  0  0  0  0  0  0
    1.2375    0.0000    0.0000 C   0  0  0  0  0  0  0  0  0  0  0  0
    0.4125    0.0000    0.0000 C   0  0  0  0  0  0  0  0  0  0  0  0
   -0.0000    0.0000    0.0000 C   0  0  0  0  0  0  0  0  0  0  0  0
    0.0862    0.0000    0.0000 C   0  0  0  0  0  0  0  0  0  0  0  0
   -2.0625    0.0000    0.0000 C   0  0  0  0  0  0  0  0  0  0  0  0
   -2.4750    0.0000    0.0000 C   0  0  0  0  0  0  0  0  0  0  0  0
   -2.0625    0.0000    0.0000 C   0  0  0  0  0  0  0  0  0  0  0  0
   -2.8875    0.0000    0.0000 C   0  0  0  0  0  0  0  0  0  0  0  0
   -3.7125    0.0000    0.0000 O   0  0  0  0  0  0  0  0  0  0  0  0
   -2.4750    0.0000    0.0000 O   0  0  0  0  0  0  0  0  0  0  0  0
  1  2  1  0      
  2  3  1  0      
  3  4  1  0      
  4  5  1  0      
  5  6  1  0      
  6  7  1  0      
  7  8  1  0      
  8  9  1  0      
  8 10  1  0      
 10 11  2  0      
 11 12  1  0      
 12 13  1  0      
 13 14  1  0      
 14 15  1  0      
 14 16  1  0      
 16 17  1  0      
 17 18  1  0      
 17 19  1  0      
 19 20  1  0      
 19 21  1  0      
 21 22  1  0      
 21 23  1  0      
 23 24  1  0      
 21 25  1  0      
 14 25  1  0      
 25 26  1  0      
 26 27  1  0      
 27 28  1  0      
  8 28  1  0      
 13 28  1  0      
 28 29  1  0      
 10 30  1  0      
  5 30  1  0      
 30 31  1  0      
  2 31  1  0      
 31 32  1  0      
  5 33  1  0      
 33 34  1  0      
 33 35  2  0      
M  END
>  <Bioactivity>
ActionsAsiatic acid is commonly used in wound healing. Asiatic acid has antioxidant,anti-inflammatory and neuroprotective properties.Packaging500 mg in glass bottleApplicationStarting material for asi
atic acid derivative synthesis for use as: Anticance

>  <CAS>
464-92-6

>  <Col>
8

>  <Formula>
C30H48O5

>  <ID>
T2827

>  <Index>
357

>  <MOLENAME>
Asiatic acid

>  <MolWt>
488.7

>  <Pathways>
MAPK Signaling

>  <Plate>
PLATE 005

>  <QR code>
1151479898

>  <Receptor>
p38 MAPK

>  <Reference>
1. Bunbupha S, et al. Clin Exp Pharmacol Physiol. 2015 Nov;42(11):1189-97. 

>  <Row>
D

>  <SMILES>
CC1CCC2(CCC3(C)C(=CCC4C5(C)CC(O)C(O)C(C)(CO)C5CCC34C)C2C1C)C(O)=O

>  <Target>
p38 MAPK inhibitor

>  <Weight>
10.3mg

$$$$
Lab-1.sdf
  ChemDraw05232018482D

 33 36  0  0  0  0  0  0  0  0999 V2000
   -3.9295    0.0000    0.0000 O   0  0  0  0  0  0  0  0  0  0  0  0
   -3.2151    0.0000    0.0000 C   0  0  0  0  0  0  0  0  0  0  0  0
   -3.2151    0.0000    0.0000 C   0  0  0  0  0  0  0  0  0  0  0  0
   -3.9295    0.0000    0.0000 O   0  0  0  0  0  0  0  0  0  0  0  0
   -2.5006    0.0000    0.0000 C   0  0  0  0  0  0  0  0  0  0  0  0
   -2.5006    0.0000    0.0000 O   0  0  0  0  0  0  0  0  0  0  0  0
   -1.7861    0.0000    0.0000 C   0  0  0  0  0  0  0  0  0  0  0  0
   -1.7861    0.0000    0.0000 C   0  0  0  0  0  0  0  0  0  0  0  0
   -2.5006    0.0000    0.0000 O   0  0  0  0  0  0  0  0  0  0  0  0
   -1.0717    0.0000    0.0000 C   0  0  0  0  0  0  0  0  0  0  0  0
   -1.0717    0.0000    0.0000 O   0  0  0  0  0  0  0  0  0  0  0  0
   -0.3572    0.0000    0.0000 C   0  0  0  0  0  0  0  0  0  0  0  0
    0.3572    0.0000    0.0000 C   0  0  0  0  0  0  0  0  0  0  0  0
    0.3572    0.0000    0.0000 O   0  0  0  0  0  0  0  0  0  0  0  0
    1.0717    0.0000    0.0000 C   0  0  0  0  0  0  0  0  0  0  0  0
    1.0717    0.0000    0.0000 C   0  0  0  0  0  0  0  0  0  0  0  0
    0.3572    0.0000    0.0000 O   0  0  0  0  0  0  0  0  0  0  0  0
   -0.3572    0.0000    0.0000 C   0  0  0  0  0  0  0  0  0  0  0  0
   -1.0717    0.0000    0.0000 C   0  0  0  0  0  0  0  0  0  0  0  0
    1.7861    0.0000    0.0000 C   0  0  0  0  0  0  0  0  0  0  0  0
    2.5006    0.0000    0.0000 C   0  0  0  0  0  0  0  0  0  0  0  0
    3.2151    0.0000    0.0000 C   0  0  0  0  0  0  0  0  0  0  0  0
    3.2151    0.0000    0.0000 C   0  0  0  0  0  0  0  0  0  0  0  0
    3.9295    0.0000    0.0000 O   0  0  0  0  0  0  0  0  0  0  0  0
    2.5006    0.0000    0.0000 C   0  0  0  0  0  0  0  0  0  0  0  0
    1.7861    0.0000    0.0000 C   0  0  0  0  0  0  0  0  0  0  0  0
   -1.7861    0.0000    0.0000 O   0  0  0  0  0  0  0  0  0  0  0  0
   -1.7861    0.0000    0.0000 C   0  0  0  0  0  0  0  0  0  0  0  0
   -2.5006    0.0000    0.0000 C   0  0  0  0  0  0  0  0  0  0  0  0
   -2.5006    0.0000    0.0000 O   0  0  0  0  0  0  0  0  0  0  0  0
   -1.0717    0.0000    0.0000 C   0  0  0  0  0  0  0  0  0  0  0  0
   -1.0717    0.0000    0.0000 O   0  0  0  0  0  0  0  0  0  0  0  0
   -0.3572    0.0000    0.0000 O   0  0  0  0  0  0  0  0  0  0  0  0
  1  2  1  0      
  2  3  1  0      
  3  4  1  0      
  3  5  1  0      
  5  6  1  0      
  6  7  1  0      
  7  8  2  0      
  8  9  1  0      
  8 10  1  0      
 10 11  1  0      
 10 12  2  0      
 12 13  1  0      
 13 14  2  0      
 13 15  1  0      
 15 16  2  0      
 16 17  1  0      
 17 18  1  0      
 12 18  1  0      
 18 19  2  0      
  7 19  1  0      
 16 20  1  0      
 20 21  2  0      
 21 22  1  0      
 22 23  2  0      
 23 24  1  0      
 23 25  1  0      
 25 26  2  0      
 20 26  1  0      
  5 27  1  0      
 27 28  1  0      
 28 29  1  0      
  2 29  1  0      
 29 30  1  0      
 28 31  1  0      
 31 32  1  0      
 31 33  2  0      
M  END
>  <Bioactivity>
Extracted from Scutellaria altissima L.;Suitability:Alkali,glacial acetic acid,pyridine,DMSO;Store the product in sealed,cool and dry condition

>  <CAS>
27740-01-8

>  <Col>
9

>  <Formula>
C21H18O12

>  <ID>
T2789

>  <Index>
358

>  <MOLENAME>
Scutellarin

>  <MolWt>
462.37

>  <Pathways>
Others

>  <Plate>
PLATE 005

>  <QR code>
1151479899

>  <Receptor>
Others

>  <Reference>
1. Wang WW, et al. J Mol Neurosci. 2015 Oct 29. 

>  <Row>
D

>  <SMILES>
OC1C(O)C(OC2=C(O)C(O)=C3C(=O)C=C(OC3=C2)C2=CC=C(O)C=C2)OC(C1O)C(O)=O

>  <Target>
Others

>  <Weight>
10mg

$$$$
Lab-1.sdf
  ChemDraw05232018482D

 34 40  0  0  0  0  0  0  0  0999 V2000
    3.1326    0.0000    0.0000 C   0  0  0  0  0  0  0  0  0  0  0  0
    2.3205    0.0000    0.0000 C   0  0  0  0  0  0  0  0  0  0  0  0
    2.2610    0.0000    0.0000 C   0  0  0  0  0  0  0  0  0  0  0  0
    2.5498    0.0000    0.0000 O   0  0  0  0  0  0  0  0  0  0  0  0
    1.8669    0.0000    0.0000 C   0  0  0  0  0  0  0  0  0  0  0  0
    1.7540    0.0000    0.0000 C   0  0  0  0  0  0  0  0  0  0  0  0
    0.9899    0.0000    0.0000 C   0  0  0  0  0  0  0  0  0  0  0  0
    0.8770    0.0000    0.0000 O   0  0  0  0  0  0  0  0  0  0  0  0
    0.3385    0.0000    0.0000 O   0  0  0  0  0  0  0  0  0  0  0  0
    0.4294    0.0000    0.0000 C   0  0  0  0  0  0  0  0  0  0  0  0
    1.2156    0.0000    0.0000 C   0  0  0  0  0  0  0  0  0  0  0  0
    1.4959    0.0000    0.0000 C   0  0  0  0  0  0  0  0  0  0  0  0
    0.9640    0.0000    0.0000 C   0  0  0  0  0  0  0  0  0  0  0  0
    0.1519    0.0000    0.0000 C   0  0  0  0  0  0  0  0  0  0  0  0
   -0.3799    0.0000    0.0000 O   0  0  0  0  0  0  0  0  0  0  0  0
   -0.1284    0.0000    0.0000 C   0  0  0  0  0  0  0  0  0  0  0  0
   -0.1879    0.0000    0.0000 C   0  0  0  0  0  0  0  0  0  0  0  0
    0.4034    0.0000    0.0000 C   0  0  0  0  0  0  0  0  0  0  0  0
    0.1231    0.0000    0.0000 C   0  0  0  0  0  0  0  0  0  0  0  0
   -0.6890    0.0000    0.0000 C   0  0  0  0  0  0  0  0  0  0  0  0
   -1.2208    0.0000    0.0000 C   0  0  0  0  0  0  0  0  0  0  0  0
   -1.5011    0.0000    0.0000 C   0  0  0  0  0  0  0  0  0  0  0  0
   -2.0330    0.0000    0.0000 C   0  0  0  0  0  0  0  0  0  0  0  0
   -2.5648    0.0000    0.0000 O   0  0  0  0  0  0  0  0  0  0  0  0
   -2.2845    0.0000    0.0000 C   0  0  0  0  0  0  0  0  0  0  0  0
   -2.8164    0.0000    0.0000 O   0  0  0  0  0  0  0  0  0  0  0  0
   -1.4723    0.0000    0.0000 C   0  0  0  0  0  0  0  0  0  0  0  0
   -0.6602    0.0000    0.0000 O   0  0  0  0  0  0  0  0  0  0  0  0
   -0.9405    0.0000    0.0000 C   0  0  0  0  0  0  0  0  0  0  0  0
   -2.3133    0.0000    0.0000 C   0  0  0  0  0  0  0  0  0  0  0  0
   -1.8502    0.0000    0.0000 C   0  0  0  0  0  0  0  0  0  0  0  0
   -2.3567    0.0000    0.0000 O   0  0  0  0  0  0  0  0  0  0  0  0
   -3.1326    0.0000    0.0000 C   0  0  0  0  0  0  0  0  0  0  0  0
   -3.1058    0.0000    0.0000 C   0  0  0  0  0  0  0  0  0  0  0  0
  1  2  1  0      
  2  3  1  0      
  2  4  1  0      
  4  5  1  0      
  5  6  1  0      
  6  7  1  0      
  7  8  2  0      
  7  9  1  0      
  9 10  1  0      
 10 11  1  0      
  5 11  1  0      
 11 12  1  0      
  2 12  1  0      
 12 13  1  0      
 13 14  1  0      
 14 15  2  0      
 14 16  1  0      
 16 17  1  0      
 16 18  1  0      
 11 18  1  0      
 18 19  1  0      
 19 20  1  0      
 20 21  1  0      
 21 22  1  0      
 21 23  1  0      
 23 24  1  0      
 24 25  1  0      
 25 26  2  0      
 25 27  1  0      
 27 28  1  0      
 28 29  1  0      
 16 29  1  0      
 21 29  1  0      
 27 29  1  0      
 23 30  1  0      
 30 31  2  0      
 31 32  1  0      
 32 33  1  0      
 33 34  2  0      
 30 34  1  0      
M  END
>  <Bioactivity>
Limonin is a limonoid, and a bitter, white, crystalline substance found in citrus and other plants. It is also known as limonoate D-ring-lactone and limonoic acid di-delta-lactone. Chemically, it is a
 member of the class of compounds known as furanolactones.

>  <CAS>
1180-71-8

>  <Col>
10

>  <Formula>
C26H30O8

>  <ID>
T2728

>  <Index>
359

>  <MOLENAME>
Limonin

>  <MolWt>
470.52

>  <Pathways>
Proteases/Proteasome; Microbiology & Virology

>  <Plate>
PLATE 005

>  <QR code>
1151479900

>  <Receptor>
HIV Protease

>  <Reference>
1. Battinelli L, et al. Planta Med, 2003, 69(10), 910-913.

>  <Row>
D

>  <SMILES>
CC1(C)OC2CC(=O)OCC22C1CC(=O)C1(C)C2CCC2(C)C(OC(=O)C3OC123)C1=COC=C1

>  <Target>
HIV Protease inhibitor

>  <Weight>
10mg

$$$$
Lab-1.sdf
  ChemDraw05232018482D

 13 13  0  0  0  0  0  0  0  0999 V2000
   -1.4289    0.0000    0.0000 O   0  0  0  0  0  0  0  0  0  0  0  0
   -0.7145    0.0000    0.0000 C   0  0  0  0  0  0  0  0  0  0  0  0
    0.0000    0.0000    0.0000 O   0  0  0  0  0  0  0  0  0  0  0  0
   -0.7145    0.0000    0.0000 C   0  0  0  0  0  0  0  0  0  0  0  0
    0.0000    0.0000    0.0000 C   0  0  0  0  0  0  0  0  0  0  0  0
    0.0000    0.0000    0.0000 C   0  0  0  0  0  0  0  0  0  0  0  0
    0.7145    0.0000    0.0000 C   0  0  0  0  0  0  0  0  0  0  0  0
    0.7145    0.0000    0.0000 C   0  0  0  0  0  0  0  0  0  0  0  0
    1.4289    0.0000    0.0000 O   0  0  0  0  0  0  0  0  0  0  0  0
    0.0000    0.0000    0.0000 C   0  0  0  0  0  0  0  0  0  0  0  0
    0.0000    0.0000    0.0000 O   0  0  0  0  0  0  0  0  0  0  0  0
   -0.7145    0.0000    0.0000 C   0  0  0  0  0  0  0  0  0  0  0  0
   -0.7145    0.0000    0.0000 C   0  0  0  0  0  0  0  0  0  0  0  0
  1  2  1  0      
  2  3  2  0      
  4  2  1  4      
  4  5  2  0      
  5  6  1  0      
  6  7  2  0      
  7  8  1  0      
  8  9  1  0      
  8 10  2  0      
 10 11  1  0      
 10 12  1  0      
 12 13  2  0      
  6 13  1  0      
M  END
>  <Bioactivity>
Extracted from Solidago decurrens,large-fruited Chinese hawthorn;Suitability:Hot water and cold ethanol;Store the product in sealed,cool and dry condition

>  <CAS>
331-39-5

>  <Col>
11

>  <Formula>
C9H8O4

>  <ID>
T2807

>  <Index>
360

>  <MOLENAME>
Caffeic Acid

>  <MolWt>
180.16

>  <Pathways>
Others

>  <Plate>
PLATE 005

>  <QR code>
1151479901

>  <Receptor>
Others

>  <Reference>
1. Pradhananga S, Shim WS. Eur J Pharmacol. 2015 Sep 5;762:313-21. 

>  <Row>
D

>  <SMILES>
OC(=O)C=CC1=CC(O)=C(O)C=C1

>  <Target>
Others

>  <Weight>
10.2mg

$$$$
Lab-1.sdf
  ChemDraw05232018482D

 31 33  0  0  0  0  0  0  0  0999 V2000
   -2.5005    0.0000    0.0000 O   0  0  0  0  0  0  0  0  0  0  0  0
   -1.7861    0.0000    0.0000 C   0  0  0  0  0  0  0  0  0  0  0  0
   -1.7861    0.0000    0.0000 C   0  0  0  0  0  0  0  0  0  0  0  0
   -1.0717    0.0000    0.0000 O   0  0  0  0  0  0  0  0  0  0  0  0
   -1.0717    0.0000    0.0000 C   0  0  0  0  0  0  0  0  0  0  0  0
   -0.3572    0.0000    0.0000 O   0  0  0  0  0  0  0  0  0  0  0  0
    0.3572    0.0000    0.0000 C   0  0  0  0  0  0  0  0  0  0  0  0
    0.3572    0.0000    0.0000 C   0  0  0  0  0  0  0  0  0  0  0  0
    1.0717    0.0000    0.0000 C   0  0  0  0  0  0  0  0  0  0  0  0
    1.0717    0.0000    0.0000 O   0  0  0  0  0  0  0  0  0  0  0  0
    1.7861    0.0000    0.0000 C   0  0  0  0  0  0  0  0  0  0  0  0
    1.7861    0.0000    0.0000 C   0  0  0  0  0  0  0  0  0  0  0  0
    2.5006    0.0000    0.0000 O   0  0  0  0  0  0  0  0  0  0  0  0
    1.0717    0.0000    0.0000 C   0  0  0  0  0  0  0  0  0  0  0  0
    1.0717    0.0000    0.0000 C   0  0  0  0  0  0  0  0  0  0  0  0
    1.7861    0.0000    0.0000 O   0  0  0  0  0  0  0  0  0  0  0  0
    0.3572    0.0000    0.0000 C   0  0  0  0  0  0  0  0  0  0  0  0
    0.3572    0.0000    0.0000 C   0  0  0  0  0  0  0  0  0  0  0  0
    1.0717    0.0000    0.0000 C   0  0  0  0  0  0  0  0  0  0  0  0
    1.7861    0.0000    0.0000 C   0  0  0  0  0  0  0  0  0  0  0  0
    2.5006    0.0000    0.0000 C   0  0  0  0  0  0  0  0  0  0  0  0
    2.5006    0.0000    0.0000 C   0  0  0  0  0  0  0  0  0  0  0  0
    3.2150    0.0000    0.0000 O   0  0  0  0  0  0  0  0  0  0  0  0
    1.7861    0.0000    0.0000 C   0  0  0  0  0  0  0  0  0  0  0  0
    1.0717    0.0000    0.0000 C   0  0  0  0  0  0  0  0  0  0  0  0
   -1.7861    0.0000    0.0000 C   0  0  0  0  0  0  0  0  0  0  0  0
   -1.7861    0.0000    0.0000 O   0  0  0  0  0  0  0  0  0  0  0  0
   -2.5005    0.0000    0.0000 C   0  0  0  0  0  0  0  0  0  0  0  0
   -3.2150    0.0000    0.0000 O   0  0  0  0  0  0  0  0  0  0  0  0
   -2.5005    0.0000    0.0000 C   0  0  0  0  0  0  0  0  0  0  0  0
   -3.2150    0.0000    0.0000 O   0  0  0  0  0  0  0  0  0  0  0  0
  1  2  1  0      
  2  3  1  0      
  3  4  1  0      
  4  5  1  0      
  5  6  1  0      
  6  7  1  0      
  7  8  2  0      
  8  9  1  0      
  9 10  1  0      
  9 11  2  0      
 11 12  1  0      
 12 13  1  0      
 12 14  2  0      
  7 14  1  0      
 14 15  1  0      
 15 16  2  0      
 15 17  1  0      
 17 18  1  0      
 18 19  1  0      
 19 20  2  0      
 20 21  1  0      
 21 22  2  0      
 22 23  1  0      
 22 24  1  0      
 24 25  2  0      
 19 25  1  0      
  5 26  1  0      
 26 27  1  0      
 26 28  1  0      
 28 29  1  0      
 28 30  1  0      
  3 30  1  0      
 30 31  1  0      
M  END
>  <Bioactivity>
Phlorizin,&nbsp; a natural product and dietary constituent found in a number of fruit trees, is a 2&#39;-glucoside of phloretin, Phlorizin is a competitive and classic inhibitor of hSGLT1(Ki=300 nM) a
nd hSGLT2(Ki= 39 nM).

>  <CAS>
60-81-1

>  <Col>
2

>  <Formula>
C21H24O10

>  <ID>
T2922

>  <Index>
361

>  <MOLENAME>
Phlorizin

>  <MolWt>
436.42

>  <Pathways>
Others

>  <Plate>
PLATE 005

>  <QR code>
1151479889

>  <Receptor>
Hsglt1; 2

>  <Reference>
1. Taton J, et al. Endokrynol Pol, 2010, 61(3), 303-310.

>  <Row>
E

>  <SMILES>
OCC1OC(OC2=CC(O)=CC(O)=C2C(=O)CCC2=CC=C(O)C=C2)C(O)C(O)C1O

>  <Target>
Hsglt

>  <Weight>
10.1mg

$$$$
Lab-1.sdf
  ChemDraw05232018482D

 43 47  0  0  0  0  0  0  0  0999 V2000
   -4.6440    0.0000    0.0000 C   0  0  0  0  0  0  0  0  0  0  0  0
   -4.6440    0.0000    0.0000 O   0  0  0  0  0  0  0  0  0  0  0  0
   -3.9295    0.0000    0.0000 C   0  0  0  0  0  0  0  0  0  0  0  0
   -3.9295    0.0000    0.0000 C   0  0  0  0  0  0  0  0  0  0  0  0
   -4.6440    0.0000    0.0000 O   0  0  0  0  0  0  0  0  0  0  0  0
   -3.2151    0.0000    0.0000 C   0  0  0  0  0  0  0  0  0  0  0  0
   -2.5006    0.0000    0.0000 C   0  0  0  0  0  0  0  0  0  0  0  0
   -2.5006    0.0000    0.0000 C   0  0  0  0  0  0  0  0  0  0  0  0
   -3.2151    0.0000    0.0000 C   0  0  0  0  0  0  0  0  0  0  0  0
   -1.7861    0.0000    0.0000 C   0  0  0  0  0  0  0  0  0  0  0  0
   -1.7861    0.0000    0.0000 C   0  0  0  0  0  0  0  0  0  0  0  0
   -1.0717    0.0000    0.0000 C   0  0  0  0  0  0  0  0  0  0  0  0
   -1.0717    0.0000    0.0000 O   0  0  0  0  0  0  0  0  0  0  0  0
   -0.3573    0.0000    0.0000 C   0  0  0  0  0  0  0  0  0  0  0  0
    0.3573    0.0000    0.0000 C   0  0  0  0  0  0  0  0  0  0  0  0
    0.3573    0.0000    0.0000 O   0  0  0  0  0  0  0  0  0  0  0  0
    1.0717    0.0000    0.0000 C   0  0  0  0  0  0  0  0  0  0  0  0
    1.0717    0.0000    0.0000 C   0  0  0  0  0  0  0  0  0  0  0  0
    1.7861    0.0000    0.0000 O   0  0  0  0  0  0  0  0  0  0  0  0
    2.5006    0.0000    0.0000 C   0  0  0  0  0  0  0  0  0  0  0  0
    2.5006    0.0000    0.0000 O   0  0  0  0  0  0  0  0  0  0  0  0
    3.2151    0.0000    0.0000 C   0  0  0  0  0  0  0  0  0  0  0  0
    3.2151    0.0000    0.0000 C   0  0  0  0  0  0  0  0  0  0  0  0
    2.5006    0.0000    0.0000 O   0  0  0  0  0  0  0  0  0  0  0  0
    3.9295    0.0000    0.0000 C   0  0  0  0  0  0  0  0  0  0  0  0
    4.6440    0.0000    0.0000 O   0  0  0  0  0  0  0  0  0  0  0  0
    3.9295    0.0000    0.0000 C   0  0  0  0  0  0  0  0  0  0  0  0
    4.6440    0.0000    0.0000 O   0  0  0  0  0  0  0  0  0  0  0  0
    3.2151    0.0000    0.0000 C   0  0  0  0  0  0  0  0  0  0  0  0
    3.2151    0.0000    0.0000 O   0  0  0  0  0  0  0  0  0  0  0  0
    2.5006    0.0000    0.0000 C   0  0  0  0  0  0  0  0  0  0  0  0
    1.7861    0.0000    0.0000 O   0  0  0  0  0  0  0  0  0  0  0  0
    1.0717    0.0000    0.0000 C   0  0  0  0  0  0  0  0  0  0  0  0
    0.3573    0.0000    0.0000 C   0  0  0  0  0  0  0  0  0  0  0  0
    1.0717    0.0000    0.0000 C   0  0  0  0  0  0  0  0  0  0  0  0
    0.3573    0.0000    0.0000 O   0  0  0  0  0  0  0  0  0  0  0  0
    1.7861    0.0000    0.0000 C   0  0  0  0  0  0  0  0  0  0  0  0
    1.7861    0.0000    0.0000 O   0  0  0  0  0  0  0  0  0  0  0  0
    2.5006    0.0000    0.0000 C   0  0  0  0  0  0  0  0  0  0  0  0
    3.2151    0.0000    0.0000 O   0  0  0  0  0  0  0  0  0  0  0  0
    0.3573    0.0000    0.0000 C   0  0  0  0  0  0  0  0  0  0  0  0
   -0.3573    0.0000    0.0000 C   0  0  0  0  0  0  0  0  0  0  0  0
   -1.0717    0.0000    0.0000 O   0  0  0  0  0  0  0  0  0  0  0  0
  1  2  1  0      
  2  3  1  0      
  3  4  2  0      
  4  5  1  0      
  4  6  1  0      
  6  7  2  0      
  7  8  1  0      
  8  9  2  0      
  3  9  1  0      
  7 10  1  0      
 10 11  1  0      
 11 12  1  0      
 12 13  2  0      
 12 14  1  0      
 14 15  2  0      
 15 16  1  0      
 15 17  1  0      
 17 18  2  0      
 18 19  1  0      
 19 20  1  0      
 20 21  1  0      
 21 22  1  0      
 22 23  1  0      
 23 24  1  0      
 22 25  1  0      
 25 26  1  0      
 25 27  1  0      
 27 28  1  0      
 27 29  1  0      
 20 29  1  0      
 29 30  1  0      
 30 31  1  0      
 31 32  1  0      
 32 33  1  0      
 33 34  1  0      
 33 35  1  0      
 35 36  1  0      
 35 37  1  0      
 37 38  1  0      
 37 39  1  0      
 31 39  1  0      
 39 40  1  0      
 18 41  1  0      
 41 42  2  0      
 14 42  1  0      
 42 43  1  0      
 10 43  1  0      
M  END
>  <Bioactivity>
Flavanone glycoside with antioxidant and neuroprotective properties. Unlike other citrus flavanones,it does not inhibit oral carcinogenesis in a rat model.

>  <CAS>
13241-33-3

>  <Col>
3

>  <Formula>
C28H34O15

>  <ID>
T2737

>  <Index>
362

>  <MOLENAME>
Neohesperidin

>  <MolWt>
610.56

>  <Pathways>
Others

>  <Plate>
PLATE 005

>  <QR code>
1151479888

>  <Receptor>
Others

>  <Reference>
1. Lee JH, et al. PhytOthers Res, 2009, 23(12), 1748-1753.

>  <Row>
E

>  <SMILES>
COC1=C(O)C=C(C=C1)C1CC(=O)C2=C(O)C=C(OC3OC(CO)C(O)C(O)C3OC3OC(C)C(O)C(O)C3O)C=C2O1

>  <Target>
Others

>  <Weight>
10mg

$$$$
Lab-1.sdf
  ChemDraw05232018482D

 15 14  0  0  0  0  0  0  0  0999 V2000
    2.8578    0.0000    0.0000 Na  0  3  0  0  0  0  0  0  0  0  0  0
    0.7144    0.0000    0.0000 O   0  0  0  0  0  0  0  0  0  0  0  0
    0.7144    0.0000    0.0000 C   0  0  0  0  0  0  0  0  0  0  0  0
   -0.0000    0.0000    0.0000 C   0  0  0  0  0  0  0  0  0  0  0  0
   -0.7145    0.0000    0.0000 C   0  0  0  0  0  0  0  0  0  0  0  0
   -1.4290    0.0000    0.0000 C   0  0  0  0  0  0  0  0  0  0  0  0
   -2.1433    0.0000    0.0000 C   0  0  0  0  0  0  0  0  0  0  0  0
   -2.8578    0.0000    0.0000 O   0  0  0  0  0  0  0  0  0  0  0  0
   -2.1433    0.0000    0.0000 C   0  0  0  0  0  0  0  0  0  0  0  0
   -2.8578    0.0000    0.0000 O   0  0  0  0  0  0  0  0  0  0  0  0
   -1.4290    0.0000    0.0000 C   0  0  0  0  0  0  0  0  0  0  0  0
   -0.7145    0.0000    0.0000 C   0  0  0  0  0  0  0  0  0  0  0  0
    1.4289    0.0000    0.0000 C   0  0  0  0  0  0  0  0  0  0  0  0
    2.1433    0.0000    0.0000 O   0  5  0  0  0  0  0  0  0  0  0  0
    1.4289    0.0000    0.0000 O   0  0  0  0  0  0  0  0  0  0  0  0
  2  3  1  0      
  3  4  1  0      
  4  5  1  0      
  5  6  2  0      
  6  7  1  0      
  7  8  1  0      
  7  9  2  0      
  9 10  1  0      
  9 11  1  0      
 11 12  2  0      
  5 12  1  0      
  3 13  1  0      
 13 14  1  0      
 13 15  2  0      
M  CHG  2   1   1  14  -1
M  END
>  <Bioactivity>
Extracted from Salvia miltiorrhiza Bge.;Suitability:Methanol,water;Store the product in sealed,cool and dry condition

>  <CAS>
67920-52-9

>  <Col>
4

>  <Formula>
C9H9NaO5

>  <ID>
T2944

>  <Index>
363

>  <MOLENAME>
Sodium Danshensu

>  <MolWt>
220.16

>  <Pathways>
Metabolism

>  <Plate>
PLATE 005

>  <QR code>
1151479887

>  <Receptor>
P450

>  <Reference>
1. Zhao GR, et al. Food Chem Toxicol, 2008, 46(1), 73-81.

>  <Row>
E

>  <SMILES>
[Na+].OC(CC1=CC(O)=C(O)C=C1)C([O-])=O

>  <Target>
CYP inhibitor

>  <Weight>
10.2mg

$$$$
Lab-1.sdf
  ChemDraw05232018482D

 33 37  0  0  0  0  0  0  0  0999 V2000
   -1.5890    0.0000    0.0000 C   0  0  0  0  0  0  0  0  0  0  0  0
   -2.3774    0.0000    0.0000 C   0  0  0  0  0  0  0  0  0  0  0  0
   -2.9820    0.0000    0.0000 C   0  0  0  0  0  0  0  0  0  0  0  0
   -2.5611    0.0000    0.0000 C   0  0  0  0  0  0  0  0  0  0  0  0
   -3.3198    0.0000    0.0000 C   0  0  0  0  0  0  0  0  0  0  0  0
   -3.2461    0.0000    0.0000 C   0  0  0  0  0  0  0  0  0  0  0  0
   -2.4418    0.0000    0.0000 C   0  0  0  0  0  0  0  0  0  0  0  0
   -2.0402    0.0000    0.0000 C   0  0  0  0  0  0  0  0  0  0  0  0
   -1.2153    0.0000    0.0000 C   0  0  0  0  0  0  0  0  0  0  0  0
   -0.7920    0.0000    0.0000 C   0  0  0  0  0  0  0  0  0  0  0  0
   -0.3904    0.0000    0.0000 C   0  0  0  0  0  0  0  0  0  0  0  0
   -1.1936    0.0000    0.0000 C   0  0  0  0  0  0  0  0  0  0  0  0
   -0.7703    0.0000    0.0000 C   0  0  0  0  0  0  0  0  0  0  0  0
    0.0546    0.0000    0.0000 C   0  0  0  0  0  0  0  0  0  0  0  0
    0.4563    0.0000    0.0000 C   0  0  0  0  0  0  0  0  0  0  0  0
    1.2812    0.0000    0.0000 C   0  0  0  0  0  0  0  0  0  0  0  0
    0.8796    0.0000    0.0000 C   0  0  0  0  0  0  0  0  0  0  0  0
    1.7045    0.0000    0.0000 C   0  0  0  0  0  0  0  0  0  0  0  0
    2.5294    0.0000    0.0000 C   0  0  0  0  0  0  0  0  0  0  0  0
    2.9310    0.0000    0.0000 C   0  0  0  0  0  0  0  0  0  0  0  0
    3.7559    0.0000    0.0000 O   0  0  0  0  0  0  0  0  0  0  0  0
    2.5077    0.0000    0.0000 C   0  0  0  0  0  0  0  0  0  0  0  0
    3.2786    0.0000    0.0000 C   0  0  0  0  0  0  0  0  0  0  0  0
    2.3521    0.0000    0.0000 C   0  0  0  0  0  0  0  0  0  0  0  0
    1.6828    0.0000    0.0000 C   0  0  0  0  0  0  0  0  0  0  0  0
    1.2595    0.0000    0.0000 C   0  0  0  0  0  0  0  0  0  0  0  0
    0.4346    0.0000    0.0000 C   0  0  0  0  0  0  0  0  0  0  0  0
    0.0329    0.0000    0.0000 C   0  0  0  0  0  0  0  0  0  0  0  0
    0.1066    0.0000    0.0000 C   0  0  0  0  0  0  0  0  0  0  0  0
   -2.0185    0.0000    0.0000 C   0  0  0  0  0  0  0  0  0  0  0  0
   -2.9368    0.0000    0.0000 C   0  0  0  0  0  0  0  0  0  0  0  0
   -3.7559    0.0000    0.0000 O   0  0  0  0  0  0  0  0  0  0  0  0
   -2.6128    0.0000    0.0000 O   0  0  0  0  0  0  0  0  0  0  0  0
  1  2  1  0      
  2  3  2  0      
  2  4  1  0      
  4  5  1  0      
  5  6  1  0      
  6  7  1  0      
  7  8  1  0      
  8  9  1  0      
  9 10  1  0      
 10 11  1  0      
 10 12  1  0      
 12 13  1  0      
 13 14  1  0      
 14 15  1  0      
 15 16  1  0      
 16 17  1  0      
 16 18  1  0      
 18 19  1  0      
 19 20  1  0      
 20 21  1  0      
 20 22  1  0      
 22 23  1  0      
 22 24  1  0      
 22 25  1  0      
 16 25  1  0      
 25 26  1  0      
 26 27  1  0      
 27 28  1  0      
 10 28  1  0      
 15 28  1  0      
 28 29  1  0      
 12 30  1  0      
  4 30  1  0      
  7 30  1  0      
  7 31  1  0      
 31 32  1  0      
 31 33  2  0      
M  END
>  <Bioactivity>
Betulinic acid is a naturally occurring pentacyclic triterpenoid which has antiretroviral, antimalarial, and anti-inflammatory properties, as well as a more recently discovered potential as an antiY a
gent, by inhibition of topoisomerase.

>  <CAS>
472-15-1

>  <Col>
5

>  <Formula>
C30H48O3

>  <ID>
T2830

>  <Index>
364

>  <MOLENAME>
Betulinic acid

>  <MolWt>
456.71

>  <Pathways>
DNA Damage/DNA Repair

>  <Plate>
PLATE 005

>  <QR code>
1151479886

>  <Receptor>
HIV-1; Eukaryotic topoisomerase I; Aminopeptidase N 

>  <Reference>
1. Fujioka T, et al. J Nat Prod, 1994, 57(2), 243-247.

>  <Row>
E

>  <SMILES>
CC(=C)C1CCC2(CCC3(C)C(CCC4C5(C)CCC(O)C(C)(C)C5CCC34C)C12)C(O)=O

>  <Target>
Topoisomerase inhibitor

>  <Weight>
10.1mg

$$$$
Lab-1.sdf
  ChemDraw05232018482D

 17 19  0  0  0  0  0  0  0  0999 V2000
    1.0473    0.0000    0.0000 C   0  0  0  0  0  0  0  0  0  0  0  0
    1.0473    0.0000    0.0000 C   0  0  0  0  0  0  0  0  0  0  0  0
    1.7618    0.0000    0.0000 C   0  0  0  0  0  0  0  0  0  0  0  0
    2.4762    0.0000    0.0000 C   0  0  0  0  0  0  0  0  0  0  0  0
    2.4762    0.0000    0.0000 C   0  0  0  0  0  0  0  0  0  0  0  0
    1.7618    0.0000    0.0000 C   0  0  0  0  0  0  0  0  0  0  0  0
    1.7618    0.0000    0.0000 C   0  0  0  0  0  0  0  0  0  0  0  0
    1.0473    0.0000    0.0000 C   0  0  0  0  0  0  0  0  0  0  0  0
    0.3328    0.0000    0.0000 C   0  0  0  0  0  0  0  0  0  0  0  0
   -0.3817    0.0000    0.0000 C   0  0  0  0  0  0  0  0  0  0  0  0
   -0.3817    0.0000    0.0000 C   0  0  0  0  0  0  0  0  0  0  0  0
    0.3328    0.0000    0.0000 C   0  0  0  0  0  0  0  0  0  0  0  0
   -1.1663    0.0000    0.0000 O   0  0  0  0  0  0  0  0  0  0  0  0
   -1.6512    0.0000    0.0000 C   0  0  0  0  0  0  0  0  0  0  0  0
   -2.4762    0.0000    0.0000 O   0  0  0  0  0  0  0  0  0  0  0  0
   -1.1663    0.0000    0.0000 C   0  0  0  0  0  0  0  0  0  0  0  0
   -1.4212    0.0000    0.0000 C   0  0  0  0  0  0  0  0  0  0  0  0
  1  2  1  0      
  2  3  1  0      
  3  4  1  0      
  4  5  1  0      
  5  6  1  0      
  6  7  2  0      
  6  8  1  0      
  2  8  1  0      
  8  9  1  0      
  9 10  1  0      
 10 11  1  0      
 11 12  1  0      
  2 12  1  0      
 11 13  1  0      
 13 14  1  0      
 14 15  2  0      
 14 16  1  0      
 10 16  1  0      
 16 17  2  0      
M  END
>  <Bioactivity>
Isoalantolactone, isolated from Inula spp., has been reported to inhibit the growth of several types of Y cells.

>  <CAS>
470-17-7

>  <Col>
6

>  <Formula>
C15H20O2

>  <ID>
T2829

>  <Index>
365

>  <MOLENAME>
Isoalantolactone

>  <MolWt>
232.31

>  <Pathways>
Others

>  <Plate>
PLATE 005

>  <QR code>
1151479885

>  <Receptor>
Others

>  <Reference>
1. Di W, et al. Oncol Rep. 2014 Oct;32(4):1585-93. 

>  <Row>
E

>  <SMILES>
CC12CCCC(=C)C1CC1C(C2)OC(=O)C1=C

>  <Target>
Others

>  <Weight>
10mg

$$$$
Lab-1.sdf
  ChemDraw05232018482D

 23 27  0  0  0  0  0  0  0  0999 V2000
   -0.5482    0.0000    0.0000 C   0  0  0  0  0  0  0  0  0  0  0  0
   -0.8203    0.0000    0.0000 N   0  0  0  0  0  0  0  0  0  0  0  0
   -0.2819    0.0000    0.0000 C   0  0  0  0  0  0  0  0  0  0  0  0
   -0.5541    0.0000    0.0000 N   0  0  0  0  0  0  0  0  0  0  0  0
   -0.0157    0.0000    0.0000 C   0  0  0  0  0  0  0  0  0  0  0  0
    0.7949    0.0000    0.0000 C   0  0  0  0  0  0  0  0  0  0  0  0
    1.0670    0.0000    0.0000 C   0  0  0  0  0  0  0  0  0  0  0  0
    0.5286    0.0000    0.0000 C   0  0  0  0  0  0  0  0  0  0  0  0
    0.9568    0.0000    0.0000 N   0  0  0  0  0  0  0  0  0  0  0  0
    1.7598    0.0000    0.0000 C   0  0  0  0  0  0  0  0  0  0  0  0
    2.4377    0.0000    0.0000 C   0  0  0  0  0  0  0  0  0  0  0  0
    3.1838    0.0000    0.0000 C   0  0  0  0  0  0  0  0  0  0  0  0
    3.2520    0.0000    0.0000 C   0  0  0  0  0  0  0  0  0  0  0  0
    2.5740    0.0000    0.0000 C   0  0  0  0  0  0  0  0  0  0  0  0
    1.8279    0.0000    0.0000 C   0  0  0  0  0  0  0  0  0  0  0  0
   -1.3646    0.0000    0.0000 C   0  0  0  0  0  0  0  0  0  0  0  0
   -1.6368    0.0000    0.0000 O   0  0  0  0  0  0  0  0  0  0  0  0
   -1.9030    0.0000    0.0000 C   0  0  0  0  0  0  0  0  0  0  0  0
   -2.7136    0.0000    0.0000 C   0  0  0  0  0  0  0  0  0  0  0  0
   -3.2520    0.0000    0.0000 C   0  0  0  0  0  0  0  0  0  0  0  0
   -2.9798    0.0000    0.0000 C   0  0  0  0  0  0  0  0  0  0  0  0
   -2.1693    0.0000    0.0000 C   0  0  0  0  0  0  0  0  0  0  0  0
   -1.6309    0.0000    0.0000 C   0  0  0  0  0  0  0  0  0  0  0  0
  1  2  1  0      
  2  3  1  0      
  3  4  1  0      
  4  5  1  0      
  5  6  1  0      
  6  7  1  0      
  7  8  2  0      
  3  8  1  0      
  8  9  1  0      
  9 10  1  0      
 10 11  2  0      
 11 12  1  0      
 12 13  2  0      
 13 14  1  0      
 14 15  2  0      
  7 15  1  0      
 10 15  1  0      
  4 16  1  0      
 16 17  2  0      
 16 18  1  0      
 18 19  2  0      
 19 20  1  0      
 20 21  2  0      
 21 22  1  0      
 22 23  2  0      
  2 23  1  0      
 18 23  1  0      
M  END
>  <Bioactivity>
Evodiamine is an indole alkaloid found in Evodia rutaescarpa. It acts as an anti-inflammatory compound; the mechanism of action may be inhibition of prostaglandin E2 synthesis or by cyclooxygenase 2 i
nduction and NF-¦ÊB activation.1 Evodiamine has been stu

>  <CAS>
518-17-2

>  <Col>
7

>  <Formula>
C19H17N3O

>  <ID>
T2868

>  <Index>
366

>  <MOLENAME>
Evodiamine

>  <MolWt>
303.35

>  <Pathways>
Others

>  <Plate>
PLATE 005

>  <QR code>
1151479884

>  <Receptor>
Others

>  <Reference>
1. Lee TJ, et al. Mol Y Ther, 2006, 5(9), 2398-407.

>  <Row>
E

>  <SMILES>
CN1C2N(CCC3=C2NC2=CC=CC=C32)C(=O)C2=CC=CC=C12

>  <Target>
prostaglandin E2 synthesis

>  <Weight>
10.1mg

$$$$
Lab-1.sdf
  ChemDraw05232018482D

 29 31  0  0  0  0  0  0  0  0999 V2000
   -2.1434    0.0000    0.0000 O   0  0  0  0  0  0  0  0  0  0  0  0
   -1.4290    0.0000    0.0000 C   0  0  0  0  0  0  0  0  0  0  0  0
   -1.4290    0.0000    0.0000 C   0  0  0  0  0  0  0  0  0  0  0  0
   -0.7145    0.0000    0.0000 O   0  0  0  0  0  0  0  0  0  0  0  0
   -0.7145    0.0000    0.0000 C   0  0  0  0  0  0  0  0  0  0  0  0
   -0.0000    0.0000    0.0000 O   0  0  0  0  0  0  0  0  0  0  0  0
    0.7144    0.0000    0.0000 C   0  0  0  0  0  0  0  0  0  0  0  0
    0.7144    0.0000    0.0000 C   0  0  0  0  0  0  0  0  0  0  0  0
   -0.0000    0.0000    0.0000 O   0  0  0  0  0  0  0  0  0  0  0  0
    1.4289    0.0000    0.0000 C   0  0  0  0  0  0  0  0  0  0  0  0
    2.1434    0.0000    0.0000 C   0  0  0  0  0  0  0  0  0  0  0  0
    2.8579    0.0000    0.0000 O   0  0  0  0  0  0  0  0  0  0  0  0
    2.1434    0.0000    0.0000 C   0  0  0  0  0  0  0  0  0  0  0  0
    1.4289    0.0000    0.0000 C   0  0  0  0  0  0  0  0  0  0  0  0
    1.4289    0.0000    0.0000 C   0  0  0  0  0  0  0  0  0  0  0  0
    2.1434    0.0000    0.0000 C   0  0  0  0  0  0  0  0  0  0  0  0
    2.1434    0.0000    0.0000 C   0  0  0  0  0  0  0  0  0  0  0  0
    2.8579    0.0000    0.0000 C   0  0  0  0  0  0  0  0  0  0  0  0
    2.8579    0.0000    0.0000 C   0  0  0  0  0  0  0  0  0  0  0  0
    2.1434    0.0000    0.0000 C   0  0  0  0  0  0  0  0  0  0  0  0
    2.1434    0.0000    0.0000 O   0  0  0  0  0  0  0  0  0  0  0  0
    1.4289    0.0000    0.0000 C   0  0  0  0  0  0  0  0  0  0  0  0
    1.4289    0.0000    0.0000 C   0  0  0  0  0  0  0  0  0  0  0  0
   -1.4290    0.0000    0.0000 C   0  0  0  0  0  0  0  0  0  0  0  0
   -1.4290    0.0000    0.0000 O   0  0  0  0  0  0  0  0  0  0  0  0
   -2.1434    0.0000    0.0000 C   0  0  0  0  0  0  0  0  0  0  0  0
   -2.8579    0.0000    0.0000 O   0  0  0  0  0  0  0  0  0  0  0  0
   -2.1434    0.0000    0.0000 C   0  0  0  0  0  0  0  0  0  0  0  0
   -2.8579    0.0000    0.0000 O   0  0  0  0  0  0  0  0  0  0  0  0
  1  2  1  0      
  2  3  1  0      
  3  4  1  0      
  4  5  1  0      
  5  6  1  0      
  6  7  1  0      
  7  8  2  0      
  8  9  1  0      
  8 10  1  0      
 10 11  2  0      
 11 12  1  0      
 11 13  1  0      
 13 14  2  0      
  7 14  1  0      
 15 14  1  4      
 15 16  2  0      
 16 17  1  0      
 17 18  2  0      
 18 19  1  0      
 19 20  2  0      
 20 21  1  0      
 20 22  1  0      
 22 23  2  0      
 17 23  1  0      
  5 24  1  0      
 24 25  1  0      
 24 26  1  0      
 26 27  1  0      
 26 28  1  0      
  3 28  1  0      
 28 29  1  0      
M  END
>  <Bioactivity>
Extracted from caulis polygoni multiflori;Store the product in sealed, cool and dry condition.

>  <CAS>
82373-94-2

>  <Col>
8

>  <Formula>
C20H22O9

>  <ID>
T2964

>  <Index>
367

>  <MOLENAME>
Astragalus polyphenols

>  <MolWt>
406.38

>  <Pathways>
Others

>  <Plate>
PLATE 005

>  <QR code>
1151479883

>  <Receptor>
Others

>  <Reference>
1. Ma ZJ, et al. Zhongguo Zhong Yao Za Zhi. 2015 Jun;40(12):2325-9.

>  <Row>
E

>  <SMILES>
OCC1OC(OC2=C(O)C=C(O)C=C2C=CC2=CC=C(O)C=C2)C(O)C(O)C1O

>  <Target>
Others

>  <Weight>
9.9mg

$$$$
Lab-1.sdf
  ChemDraw05232018482D

 22 25  0  0  0  0  0  0  0  0999 V2000
    2.7358    0.0000    0.0000 C   0  0  0  0  0  0  0  0  0  0  0  0
    2.2294    0.0000    0.0000 C   0  0  0  0  0  0  0  0  0  0  0  0
    2.4587    0.0000    0.0000 C   0  0  0  0  0  0  0  0  0  0  0  0
    1.7759    0.0000    0.0000 O   0  0  0  0  0  0  0  0  0  0  0  0
    1.1245    0.0000    0.0000 C   0  0  0  0  0  0  0  0  0  0  0  0
    1.4048    0.0000    0.0000 C   0  0  0  0  0  0  0  0  0  0  0  0
    0.8730    0.0000    0.0000 C   0  0  0  0  0  0  0  0  0  0  0  0
    1.1533    0.0000    0.0000 O   0  0  0  0  0  0  0  0  0  0  0  0
    0.0609    0.0000    0.0000 C   0  0  0  0  0  0  0  0  0  0  0  0
   -0.4710    0.0000    0.0000 O   0  0  0  0  0  0  0  0  0  0  0  0
   -0.2195    0.0000    0.0000 C   0  0  0  0  0  0  0  0  0  0  0  0
    0.3124    0.0000    0.0000 C   0  0  0  0  0  0  0  0  0  0  0  0
    0.0321    0.0000    0.0000 C   0  0  0  0  0  0  0  0  0  0  0  0
   -0.7801    0.0000    0.0000 C   0  0  0  0  0  0  0  0  0  0  0  0
   -1.3119    0.0000    0.0000 C   0  0  0  0  0  0  0  0  0  0  0  0
   -1.0316    0.0000    0.0000 C   0  0  0  0  0  0  0  0  0  0  0  0
   -1.5634    0.0000    0.0000 C   0  0  0  0  0  0  0  0  0  0  0  0
   -2.3755    0.0000    0.0000 C   0  0  0  0  0  0  0  0  0  0  0  0
   -2.6558    0.0000    0.0000 C   0  0  0  0  0  0  0  0  0  0  0  0
   -2.1240    0.0000    0.0000 C   0  0  0  0  0  0  0  0  0  0  0  0
   -2.7358    0.0000    0.0000 C   0  0  0  0  0  0  0  0  0  0  0  0
   -2.0072    0.0000    0.0000 C   0  0  0  0  0  0  0  0  0  0  0  0
  1  2  1  0      
  2  3  2  0      
  3  4  1  0      
  4  5  1  0      
  5  6  2  0      
  2  6  1  0      
  6  7  1  0      
  7  8  2  0      
  7  9  1  0      
  9 10  2  0      
  9 11  1  0      
 11 12  2  0      
  5 12  1  0      
 12 13  1  0      
 13 14  2  0      
 14 15  1  0      
 15 16  2  0      
 11 16  1  0      
 16 17  1  0      
 17 18  1  0      
 18 19  1  0      
 19 20  1  0      
 15 20  1  0      
 20 21  1  0      
 20 22  1  0      
M  END
>  <Bioactivity>
Tanshinone IIA(Tanshinone B) is the most abundant diterpene quinone in Danshen, Salviae miltiorrhizae Radix, a widely prescribed traditional herbal medicine that is used to treat cardiovascular and in
flammatory diseases.

>  <CAS>
568-72-9

>  <Col>
9

>  <Formula>
C19H18O3

>  <ID>
T2906

>  <Index>
368

>  <MOLENAME>
Tanshinone IIA

>  <MolWt>
294.35

>  <Pathways>
Others

>  <Plate>
PLATE 005

>  <QR code>
1151479882

>  <Receptor>
Others

>  <Reference>
1. Fu J, et al. Eur J Pharmacol, 2007, 568(1-3), 213-221.

>  <Row>
E

>  <SMILES>
CC1=COC2=C1C(=O)C(=O)C1=C2C=CC2=C1CCCC2(C)C

>  <Target>
Others

>  <Weight>
10.3mg

$$$$
Lab-1.sdf
  ChemDraw05232018482D

 14 16  0  0  0  0  0  0  0  0999 V2000
   -0.1659    0.0000    0.0000 C   0  0  0  0  0  0  0  0  0  0  0  0
   -0.0797    0.0000    0.0000 C   0  0  0  0  0  0  0  0  0  0  0  0
    0.6348    0.0000    0.0000 C   0  0  0  0  0  0  0  0  0  0  0  0
    1.3492    0.0000    0.0000 C   0  0  0  0  0  0  0  0  0  0  0  0
    1.3492    0.0000    0.0000 C   0  0  0  0  0  0  0  0  0  0  0  0
    0.6348    0.0000    0.0000 C   0  0  0  0  0  0  0  0  0  0  0  0
    0.4285    0.0000    0.0000 O   0  0  0  0  0  0  0  0  0  0  0  0
   -0.0797    0.0000    0.0000 C   0  0  0  0  0  0  0  0  0  0  0  0
   -0.1659    0.0000    0.0000 C   0  0  0  0  0  0  0  0  0  0  0  0
   -0.8643    0.0000    0.0000 C   0  0  0  0  0  0  0  0  0  0  0  0
   -1.1193    0.0000    0.0000 O   0  0  0  0  0  0  0  0  0  0  0  0
   -1.3492    0.0000    0.0000 O   0  0  0  0  0  0  0  0  0  0  0  0
   -0.8643    0.0000    0.0000 C   0  0  0  0  0  0  0  0  0  0  0  0
   -1.1193    0.0000    0.0000 O   0  0  0  0  0  0  0  0  0  0  0  0
  1  2  1  0      
  2  3  1  0      
  3  4  1  0      
  4  5  1  0      
  5  6  1  0      
  6  7  1  0      
  3  7  1  0      
  6  8  1  0      
  2  8  1  0      
  8  9  1  0      
  8 10  1  0      
 10 11  2  0      
 10 12  1  0      
 12 13  1  0      
  2 13  1  0      
 13 14  2  0      
M  END
>  <Bioactivity>
Cantharidin, a natural toxin isolated from beetles in the families Meloidae and Oedemeridae, has been reported to be toxic to some pests, including the diamondback moth.

>  <CAS>
56-25-7

>  <Col>
10

>  <Formula>
C10H12O4

>  <ID>
T2903

>  <Index>
369

>  <MOLENAME>
Cantharidin

>  <MolWt>
196.2

>  <Pathways>
Others

>  <Plate>
PLATE 005

>  <QR code>
1151479881

>  <Receptor>
Others

>  <Reference>
1. Alzoubi K, et al. Toxins (Basel). 2015 Jul 28;7(8):2822-34.

>  <Row>
E

>  <SMILES>
CC12C3CCC(O3)C1(C)C(=O)OC2=O

>  <Target>
Others

>  <Weight>
10.2mg

$$$$
Lab-1.sdf
  ChemDraw05232018482D

 20 22  0  0  0  0  0  0  0  0999 V2000
   -0.4369    0.0000    0.0000 C   0  0  0  0  0  0  0  0  0  0  0  0
   -0.4369    0.0000    0.0000 C   0  0  0  0  0  0  0  0  0  0  0  0
    0.2775    0.0000    0.0000 C   0  0  0  0  0  0  0  0  0  0  0  0
   -1.1514    0.0000    0.0000 C   0  0  0  0  0  0  0  0  0  0  0  0
   -1.1514    0.0000    0.0000 C   0  0  0  0  0  0  0  0  0  0  0  0
   -0.4369    0.0000    0.0000 O   0  0  0  0  0  0  0  0  0  0  0  0
   -0.4369    0.0000    0.0000 C   0  0  0  0  0  0  0  0  0  0  0  0
    0.2775    0.0000    0.0000 C   0  0  0  0  0  0  0  0  0  0  0  0
    0.9919    0.0000    0.0000 O   0  0  0  0  0  0  0  0  0  0  0  0
    1.7064    0.0000    0.0000 C   0  0  0  0  0  0  0  0  0  0  0  0
    2.4209    0.0000    0.0000 O   0  0  0  0  0  0  0  0  0  0  0  0
    1.7064    0.0000    0.0000 C   0  0  0  0  0  0  0  0  0  0  0  0
    0.9919    0.0000    0.0000 C   0  0  0  0  0  0  0  0  0  0  0  0
    0.2775    0.0000    0.0000 C   0  0  0  0  0  0  0  0  0  0  0  0
   -0.4369    0.0000    0.0000 C   0  0  0  0  0  0  0  0  0  0  0  0
   -1.1514    0.0000    0.0000 C   0  0  0  0  0  0  0  0  0  0  0  0
   -1.1514    0.0000    0.0000 C   0  0  0  0  0  0  0  0  0  0  0  0
   -1.9360    0.0000    0.0000 O   0  0  0  0  0  0  0  0  0  0  0  0
   -2.4209    0.0000    0.0000 C   0  0  0  0  0  0  0  0  0  0  0  0
   -1.9360    0.0000    0.0000 C   0  0  0  0  0  0  0  0  0  0  0  0
  1  2  1  0      
  2  3  1  0      
  2  4  2  0      
  4  5  1  0      
  5  6  1  0      
  6  7  1  0      
  7  8  2  0      
  8  9  1  0      
  9 10  1  0      
 10 11  2  0      
 10 12  1  0      
 12 13  2  0      
 13 14  1  0      
  8 14  1  0      
 14 15  2  0      
 15 16  1  0      
 16 17  2  0      
  7 17  1  0      
 17 18  1  0      
 18 19  1  0      
 19 20  2  0      
 16 20  1  0      
M  END
>  <Bioactivity>
Imperatorin is a modulator of p38,ERK pathway. Imperatorin increases BMP-2 expression (mRNA) and increases bone density/volume and mineralization in vivo.

>  <CAS>
482-44-0

>  <Col>
11

>  <Formula>
C16H14O4

>  <ID>
T2845

>  <Index>
370

>  <MOLENAME>
Imperatorin

>  <MolWt>
270.29

>  <Pathways>
Others

>  <Plate>
PLATE 005

>  <QR code>
1151479880

>  <Receptor>
Others

>  <Reference>
1. Hu J, et al. Tumour Biol. 2015 Jul 29. 

>  <Row>
E

>  <SMILES>
CC(C)=CCOC1=C2OC(=O)C=CC2=CC2=C1OC=C2

>  <Target>
Others

>  <Weight>
10.1mg

$$$$
Lab-1.sdf
  ChemDraw05232018482D

 31 34  0  0  0  0  0  0  0  0999 V2000
   -4.2867    0.0000    0.0000 O   0  0  0  0  0  0  0  0  0  0  0  0
   -3.5722    0.0000    0.0000 C   0  0  0  0  0  0  0  0  0  0  0  0
   -2.8578    0.0000    0.0000 C   0  0  0  0  0  0  0  0  0  0  0  0
   -2.1433    0.0000    0.0000 O   0  0  0  0  0  0  0  0  0  0  0  0
   -1.4289    0.0000    0.0000 C   0  0  0  0  0  0  0  0  0  0  0  0
   -0.7144    0.0000    0.0000 O   0  0  0  0  0  0  0  0  0  0  0  0
   -0.7144    0.0000    0.0000 C   0  0  0  0  0  0  0  0  0  0  0  0
   -1.4289    0.0000    0.0000 C   0  0  0  0  0  0  0  0  0  0  0  0
   -2.1433    0.0000    0.0000 O   0  0  0  0  0  0  0  0  0  0  0  0
   -1.4289    0.0000    0.0000 C   0  0  0  0  0  0  0  0  0  0  0  0
   -0.7144    0.0000    0.0000 C   0  0  0  0  0  0  0  0  0  0  0  0
    0.0000    0.0000    0.0000 C   0  0  0  0  0  0  0  0  0  0  0  0
    0.0000    0.0000    0.0000 C   0  0  0  0  0  0  0  0  0  0  0  0
    0.7144    0.0000    0.0000 O   0  0  0  0  0  0  0  0  0  0  0  0
    1.4289    0.0000    0.0000 C   0  0  0  0  0  0  0  0  0  0  0  0
    1.4289    0.0000    0.0000 C   0  0  0  0  0  0  0  0  0  0  0  0
    0.7144    0.0000    0.0000 C   0  0  0  0  0  0  0  0  0  0  0  0
    0.7144    0.0000    0.0000 O   0  0  0  0  0  0  0  0  0  0  0  0
    2.1434    0.0000    0.0000 C   0  0  0  0  0  0  0  0  0  0  0  0
    2.8579    0.0000    0.0000 C   0  0  0  0  0  0  0  0  0  0  0  0
    3.5722    0.0000    0.0000 C   0  0  0  0  0  0  0  0  0  0  0  0
    3.5722    0.0000    0.0000 C   0  0  0  0  0  0  0  0  0  0  0  0
    4.2867    0.0000    0.0000 O   0  0  0  0  0  0  0  0  0  0  0  0
    2.8579    0.0000    0.0000 C   0  0  0  0  0  0  0  0  0  0  0  0
    2.1434    0.0000    0.0000 C   0  0  0  0  0  0  0  0  0  0  0  0
   -1.4289    0.0000    0.0000 C   0  0  0  0  0  0  0  0  0  0  0  0
   -0.7144    0.0000    0.0000 O   0  0  0  0  0  0  0  0  0  0  0  0
   -2.1433    0.0000    0.0000 C   0  0  0  0  0  0  0  0  0  0  0  0
   -2.1433    0.0000    0.0000 O   0  0  0  0  0  0  0  0  0  0  0  0
   -2.8578    0.0000    0.0000 C   0  0  0  0  0  0  0  0  0  0  0  0
   -3.5722    0.0000    0.0000 O   0  0  0  0  0  0  0  0  0  0  0  0
  1  2  1  0      
  2  3  1  0      
  3  4  1  0      
  4  5  1  0      
  5  6  1  0      
  6  7  1  0      
  7  8  2  0      
  8  9  1  0      
  8 10  1  0      
 10 11  2  0      
 11 12  1  0      
 12 13  2  0      
  7 13  1  0      
 13 14  1  0      
 14 15  1  0      
 15 16  2  0      
 16 17  1  0      
 12 17  1  0      
 17 18  2  0      
 16 19  1  0      
 19 20  2  0      
 20 21  1  0      
 21 22  2  0      
 22 23  1  0      
 22 24  1  0      
 24 25  2  0      
 19 25  1  0      
  5 26  1  0      
 26 27  1  0      
 26 28  1  0      
 28 29  1  0      
 28 30  1  0      
  3 30  1  0      
 30 31  1  0      
M  END
>  <Bioactivity>
Puerarin (Kakonein), an isoflavones found in the root of Radix puerariae, is a 5-HT2C receptor and benzodiazepine site antagonist.

>  <CAS>
3681-99-0

>  <Col>
2

>  <Formula>
C21H20O9

>  <ID>
T2815

>  <Index>
371

>  <MOLENAME>
Puerarin (Kakonein)

>  <MolWt>
416.38

>  <Pathways>
Others

>  <Plate>
PLATE 005

>  <QR code>
1151479868

>  <Receptor>
Others

>  <Reference>
1. Overstreet DH, et al. Pharmacol Biochem Behav, 2003, 75(3), 619-625.

>  <Row>
F

>  <SMILES>
OCC1OC(OC2=C(O)C=CC3=C2OC=C(C3=O)C2=CC=C(O)C=C2)C(O)C(O)C1O

>  <Target>
5-HT2C receptor antagonist

>  <Weight>
10.1mg

$$$$
Lab-1.sdf
  ChemDraw05232018482D

 19 22  0  0  0  0  0  0  0  0999 V2000
   -2.1434    0.0000    0.0000 O   0  5  0  0  0  0  0  0  0  0  0  0
   -1.4290    0.0000    0.0000 N   0  3  0  0  0  0  0  0  0  0  0  0
   -2.1434    0.0000    0.0000 C   0  0  0  0  0  0  0  0  0  0  0  0
   -2.1434    0.0000    0.0000 C   0  0  0  0  0  0  0  0  0  0  0  0
   -1.4290    0.0000    0.0000 C   0  0  0  0  0  0  0  0  0  0  0  0
   -0.7145    0.0000    0.0000 C   0  0  0  0  0  0  0  0  0  0  0  0
   -0.0000    0.0000    0.0000 C   0  0  0  0  0  0  0  0  0  0  0  0
    0.7145    0.0000    0.0000 N   0  0  0  0  0  0  0  0  0  0  0  0
    0.7145    0.0000    0.0000 C   0  0  0  0  0  0  0  0  0  0  0  0
    1.4289    0.0000    0.0000 C   0  0  0  0  0  0  0  0  0  0  0  0
    2.1434    0.0000    0.0000 C   0  0  0  0  0  0  0  0  0  0  0  0
    2.1434    0.0000    0.0000 C   0  0  0  0  0  0  0  0  0  0  0  0
    1.4289    0.0000    0.0000 C   0  0  0  0  0  0  0  0  0  0  0  0
    1.4289    0.0000    0.0000 O   0  0  0  0  0  0  0  0  0  0  0  0
   -0.0000    0.0000    0.0000 C   0  0  0  0  0  0  0  0  0  0  0  0
   -0.0000    0.0000    0.0000 C   0  0  0  0  0  0  0  0  0  0  0  0
   -0.7145    0.0000    0.0000 C   0  0  0  0  0  0  0  0  0  0  0  0
   -1.4290    0.0000    0.0000 C   0  0  0  0  0  0  0  0  0  0  0  0
   -0.7145    0.0000    0.0000 C   0  0  0  0  0  0  0  0  0  0  0  0
  1  2  1  0      
  2  3  1  0      
  3  4  1  0      
  4  5  1  0      
  5  6  1  0      
  6  7  1  0      
  7  8  1  0      
  8  9  1  0      
  9 10  1  0      
 10 11  1  0      
 11 12  1  0      
 12 13  1  0      
  8 13  1  0      
 13 14  2  0      
  9 15  1  0      
 15 16  1  0      
 16 17  1  0      
 17 18  1  0      
  2 18  1  0      
 15 19  1  0      
  2 19  1  0      
  6 19  1  0      
M  CHG  2   1  -1   2   1
M  END
>  <Bioactivity>
Alkaloid isolated from Sophora flavescens. Antifribotic. Neuroprotective.1 Traditional chinese medicine used in the treatment against hepatitis B virus.2

>  <CAS>
16837-52-8

>  <Col>
3

>  <Formula>
C15H24N2O2

>  <ID>
T2754

>  <Index>
372

>  <MOLENAME>
Oxymatrine

>  <MolWt>
264.37

>  <Pathways>
Ubiquitination

>  <Plate>
PLATE 005

>  <QR code>
1151479869

>  <Receptor>
Autophagy

>  <Reference>
1. Li J, et al. Mol Med Rep. 2015 Oct;12(4):5369-74. 

>  <Row>
F

>  <SMILES>
[O-][N+]12CCCC3CN4C(CCCC4=O)C(CCC1)C23

>  <Target>
Autophagy

>  <Weight>
10.3mg

$$$$
Lab-1.sdf
  ChemDraw05232018482D

 20 22  0  0  0  0  0  0  0  0999 V2000
   -2.8578    0.0000    0.0000 C   0  0  0  0  0  0  0  0  0  0  0  0
   -2.1434    0.0000    0.0000 C   0  0  0  0  0  0  0  0  0  0  0  0
   -2.1434    0.0000    0.0000 C   0  0  0  0  0  0  0  0  0  0  0  0
   -1.4290    0.0000    0.0000 C   0  0  0  0  0  0  0  0  0  0  0  0
   -1.4290    0.0000    0.0000 O   0  0  0  0  0  0  0  0  0  0  0  0
   -0.7144    0.0000    0.0000 C   0  0  0  0  0  0  0  0  0  0  0  0
    0.0000    0.0000    0.0000 C   0  0  0  0  0  0  0  0  0  0  0  0
    0.0000    0.0000    0.0000 O   0  0  0  0  0  0  0  0  0  0  0  0
    0.7144    0.0000    0.0000 C   0  0  0  0  0  0  0  0  0  0  0  0
    1.4289    0.0000    0.0000 C   0  0  0  0  0  0  0  0  0  0  0  0
    1.4289    0.0000    0.0000 O   0  0  0  0  0  0  0  0  0  0  0  0
    2.1434    0.0000    0.0000 C   0  0  0  0  0  0  0  0  0  0  0  0
    2.1434    0.0000    0.0000 C   0  0  0  0  0  0  0  0  0  0  0  0
    2.8578    0.0000    0.0000 O   0  0  0  0  0  0  0  0  0  0  0  0
    1.4289    0.0000    0.0000 C   0  0  0  0  0  0  0  0  0  0  0  0
    0.7144    0.0000    0.0000 C   0  0  0  0  0  0  0  0  0  0  0  0
    0.0000    0.0000    0.0000 C   0  0  0  0  0  0  0  0  0  0  0  0
    0.0000    0.0000    0.0000 O   0  0  0  0  0  0  0  0  0  0  0  0
   -0.7144    0.0000    0.0000 C   0  0  0  0  0  0  0  0  0  0  0  0
   -1.4290    0.0000    0.0000 C   0  0  0  0  0  0  0  0  0  0  0  0
  1  2  1  0      
  2  3  2  0      
  3  4  1  0      
  4  5  1  0      
  4  6  2  0      
  6  7  1  0      
  7  8  2  0      
  7  9  1  0      
  9 10  2  0      
 10 11  1  0      
 10 12  1  0      
 12 13  2  0      
 13 14  1  0      
 13 15  1  0      
 15 16  2  0      
  9 16  1  0      
 16 17  1  0      
 17 18  2  0      
 17 19  1  0      
  6 19  1  0      
 19 20  2  0      
  2 20  1  0      
M  END
>  <Bioactivity>
Emodin is a naturally occurring anthraquinone present in the roots and barks of numerous plants; exerts antiproliferative effects in Y cells that are regulated by different signaling pathways.

>  <CAS>
518-82-1

>  <Col>
4

>  <Formula>
C15H10O5

>  <ID>
T2869

>  <Index>
373

>  <MOLENAME>
Emodin

>  <MolWt>
270.24

>  <Pathways>
Metabolism

>  <Plate>
PLATE 005

>  <QR code>
1151479870

>  <Receptor>
Dehydrogenase

>  <Reference>
1. Cha TL, et al. Mol Carcinog. 2015 Mar;54(3):167-77. 

>  <Row>
F

>  <SMILES>
CC1=CC(O)=C2C(=O)C3=C(O)C=C(O)C=C3C(=O)C2=C1

>  <Target>
Dehydrogenase inhibitor

>  <Weight>
10.2mg

$$$$
Lab-1.sdf
  ChemDraw05232018482D

 20 22  0  0  0  0  0  0  0  0999 V2000
   -2.8578    0.0000    0.0000 O   0  0  0  0  0  0  0  0  0  0  0  0
   -2.1433    0.0000    0.0000 C   0  0  0  0  0  0  0  0  0  0  0  0
   -2.1433    0.0000    0.0000 C   0  0  0  0  0  0  0  0  0  0  0  0
   -2.8578    0.0000    0.0000 O   0  0  0  0  0  0  0  0  0  0  0  0
   -1.4290    0.0000    0.0000 C   0  0  0  0  0  0  0  0  0  0  0  0
   -1.4290    0.0000    0.0000 O   0  0  0  0  0  0  0  0  0  0  0  0
   -0.7145    0.0000    0.0000 C   0  0  0  0  0  0  0  0  0  0  0  0
   -0.0000    0.0000    0.0000 C   0  0  0  0  0  0  0  0  0  0  0  0
   -0.0000    0.0000    0.0000 O   0  0  0  0  0  0  0  0  0  0  0  0
    0.7145    0.0000    0.0000 C   0  0  0  0  0  0  0  0  0  0  0  0
    0.7145    0.0000    0.0000 C   0  0  0  0  0  0  0  0  0  0  0  0
   -0.0000    0.0000    0.0000 O   0  0  0  0  0  0  0  0  0  0  0  0
   -0.7145    0.0000    0.0000 C   0  0  0  0  0  0  0  0  0  0  0  0
   -1.4290    0.0000    0.0000 C   0  0  0  0  0  0  0  0  0  0  0  0
    1.4289    0.0000    0.0000 C   0  0  0  0  0  0  0  0  0  0  0  0
    2.1433    0.0000    0.0000 C   0  0  0  0  0  0  0  0  0  0  0  0
    2.8578    0.0000    0.0000 C   0  0  0  0  0  0  0  0  0  0  0  0
    2.8578    0.0000    0.0000 C   0  0  0  0  0  0  0  0  0  0  0  0
    2.1433    0.0000    0.0000 C   0  0  0  0  0  0  0  0  0  0  0  0
    1.4289    0.0000    0.0000 C   0  0  0  0  0  0  0  0  0  0  0  0
  1  2  1  0      
  2  3  2  0      
  3  4  1  0      
  3  5  1  0      
  5  6  1  0      
  5  7  2  0      
  7  8  1  0      
  8  9  2  0      
  8 10  1  0      
 10 11  2  0      
 11 12  1  0      
 12 13  1  0      
  7 13  1  0      
 13 14  2  0      
  2 14  1  0      
 11 15  1  0      
 15 16  2  0      
 16 17  1  0      
 17 18  2  0      
 18 19  1  0      
 19 20  2  0      
 15 20  1  0      
M  END
>  <Bioactivity>
The flavonoid component of Nepalese and Sino-Japanese crude drugs.1,2 Baicalein,a major flavone of Scutellariae baicalensis,inhibits the 12-lipoxygenase (12-LOX) pathway of arachidonic acid metabolism
,which inhibits Y cell proliferation and induce

>  <CAS>
491-67-8

>  <Col>
5

>  <Formula>
C15H10O5

>  <ID>
T2858

>  <Index>
374

>  <MOLENAME>
Baicalein

>  <MolWt>
270.24

>  <Pathways>
Metabolism

>  <Plate>
PLATE 005

>  <QR code>
1151479871

>  <Receptor>
CYP2C9

>  <Reference>
1. Yeh CH, et al. J Cell Physiol. 2015 Aug;230(8):1840-51.

>  <Row>
F

>  <SMILES>
OC1=C(O)C(O)=C2C(=O)C=C(OC2=C1)C1=CC=CC=C1

>  <Target>
CYP inhibitor

>  <Weight>
10.3mg

$$$$
Lab-1.sdf
  ChemDraw05232018482D

 18 21  0  0  0  0  0  0  0  0999 V2000
    1.4290    0.0000    0.0000 O   0  0  0  0  0  0  0  0  0  0  0  0
    1.4290    0.0000    0.0000 C   0  0  0  0  0  0  0  0  0  0  0  0
    2.1434    0.0000    0.0000 C   0  0  0  0  0  0  0  0  0  0  0  0
    2.1434    0.0000    0.0000 C   0  0  0  0  0  0  0  0  0  0  0  0
    1.4290    0.0000    0.0000 C   0  0  0  0  0  0  0  0  0  0  0  0
    0.7145    0.0000    0.0000 C   0  0  0  0  0  0  0  0  0  0  0  0
   -0.0000    0.0000    0.0000 C   0  0  0  0  0  0  0  0  0  0  0  0
   -0.0000    0.0000    0.0000 C   0  0  0  0  0  0  0  0  0  0  0  0
   -0.7145    0.0000    0.0000 C   0  0  0  0  0  0  0  0  0  0  0  0
   -1.4289    0.0000    0.0000 C   0  0  0  0  0  0  0  0  0  0  0  0
   -1.4289    0.0000    0.0000 N   0  0  0  0  0  0  0  0  0  0  0  0
   -2.1434    0.0000    0.0000 C   0  0  0  0  0  0  0  0  0  0  0  0
   -2.1434    0.0000    0.0000 C   0  0  0  0  0  0  0  0  0  0  0  0
   -1.4289    0.0000    0.0000 C   0  0  0  0  0  0  0  0  0  0  0  0
   -0.7145    0.0000    0.0000 C   0  0  0  0  0  0  0  0  0  0  0  0
   -0.0000    0.0000    0.0000 C   0  0  0  0  0  0  0  0  0  0  0  0
    0.7145    0.0000    0.0000 N   0  0  0  0  0  0  0  0  0  0  0  0
   -0.7145    0.0000    0.0000 C   0  0  0  0  0  0  0  0  0  0  0  0
  1  2  2  0      
  2  3  1  0      
  3  4  1  0      
  4  5  1  0      
  5  6  1  0      
  6  7  1  0      
  7  8  1  0      
  8  9  1  0      
  9 10  1  0      
 10 11  1  0      
 11 12  1  0      
 12 13  1  0      
 13 14  1  0      
 14 15  1  0      
 15 16  1  0      
 16 17  1  0      
  2 17  1  0      
  6 17  1  0      
 15 18  1  0      
  7 18  1  0      
 11 18  1  0      
M  END
>  <Bioactivity>
Matrine is an alkaloid found in plants from the Sophora genus. It has a variety of pharmacological effects, including anti-Y effects, and action as a kappa opioid receptor and ?-receptor agonist.

>  <CAS>
519-02-8

>  <Col>
6

>  <Formula>
C15H24N2O

>  <ID>
T2870

>  <Index>
375

>  <MOLENAME>
(+)-Matrine

>  <MolWt>
248.37

>  <Pathways>
Neuroscience

>  <Plate>
PLATE 005

>  <QR code>
1151479872

>  <Receptor>
¦Ê-opioid receptor

>  <Reference>
1. Ren H, et al. Acta Biochim Biophys Sin (Shanghai). 2014 Dec;46(12):1049-55.

>  <Row>
F

>  <SMILES>
O=C1CCCC2C3CCCN4CCCC(CN12)C34

>  <Target>
Opioid Receptor agonist

>  <Weight>
10.2mg

$$$$
Lab-1.sdf
  ChemDraw05232018482D

 19 20  0  0  0  0  0  0  0  0999 V2000
   -2.1433    0.0000    0.0000 C   0  0  0  0  0  0  0  0  0  0  0  0
   -1.4289    0.0000    0.0000 O   0  0  0  0  0  0  0  0  0  0  0  0
   -1.4289    0.0000    0.0000 C   0  0  0  0  0  0  0  0  0  0  0  0
   -0.7144    0.0000    0.0000 C   0  0  0  0  0  0  0  0  0  0  0  0
   -0.7144    0.0000    0.0000 C   0  0  0  0  0  0  0  0  0  0  0  0
    0.0000    0.0000    0.0000 C   0  0  0  0  0  0  0  0  0  0  0  0
    0.7145    0.0000    0.0000 C   0  0  0  0  0  0  0  0  0  0  0  0
    1.4289    0.0000    0.0000 C   0  0  0  0  0  0  0  0  0  0  0  0
    2.1434    0.0000    0.0000 C   0  0  0  0  0  0  0  0  0  0  0  0
    2.8579    0.0000    0.0000 C   0  0  0  0  0  0  0  0  0  0  0  0
    2.8579    0.0000    0.0000 C   0  0  0  0  0  0  0  0  0  0  0  0
    3.5722    0.0000    0.0000 O   0  0  0  0  0  0  0  0  0  0  0  0
    2.1434    0.0000    0.0000 C   0  0  0  0  0  0  0  0  0  0  0  0
    1.4289    0.0000    0.0000 C   0  0  0  0  0  0  0  0  0  0  0  0
   -1.4289    0.0000    0.0000 C   0  0  0  0  0  0  0  0  0  0  0  0
   -2.1433    0.0000    0.0000 C   0  0  0  0  0  0  0  0  0  0  0  0
   -2.8578    0.0000    0.0000 O   0  0  0  0  0  0  0  0  0  0  0  0
   -3.5722    0.0000    0.0000 C   0  0  0  0  0  0  0  0  0  0  0  0
   -2.1433    0.0000    0.0000 C   0  0  0  0  0  0  0  0  0  0  0  0
  1  2  1  0      
  2  3  1  0      
  3  4  2  0      
  4  5  1  0      
  6  5  1  4      
  6  7  2  0      
  7  8  1  0      
  8  9  2  0      
  9 10  1  0      
 10 11  2  0      
 11 12  1  0      
 11 13  1  0      
 13 14  2  0      
  8 14  1  0      
  5 15  2  0      
 15 16  1  0      
 16 17  1  0      
 17 18  1  0      
 16 19  2  0      
  3 19  1  0      
M  END
>  <Bioactivity>
Extracted from Pterocarpus indicus;Store the product in sealed, cool and dry condition.

>  <CAS>
537-42-8

>  <Col>
7

>  <Formula>
C16H16O3

>  <ID>
T2888

>  <Index>
376

>  <MOLENAME>
Pterostilbene

>  <MolWt>
256.3

>  <Pathways>
Ubiquitination

>  <Plate>
PLATE 005

>  <QR code>
1151479873

>  <Receptor>
Autophagy

>  <Reference>
1. Lin HC, et al. J Food Sci. 2015 Oct;80(10):H2331-5.

>  <Row>
F

>  <SMILES>
COC1=CC(C=CC2=CC=C(O)C=C2)=CC(OC)=C1

>  <Target>
Autophagy

>  <Weight>
10.4mg

$$$$
Lab-1.sdf
  ChemDraw05232018482D

 36 40  0  0  0  0  0  0  0  0999 V2000
   -0.4312    0.0000    0.0000 C   0  0  0  0  0  0  0  0  0  0  0  0
   -0.4922    0.0000    0.0000 O   0  0  0  0  0  0  0  0  0  0  0  0
    0.1898    0.0000    0.0000 C   0  0  0  0  0  0  0  0  0  0  0  0
    0.9328    0.0000    0.0000 C   0  0  0  0  0  0  0  0  0  0  0  0
    0.9938    0.0000    0.0000 O   0  0  0  0  0  0  0  0  0  0  0  0
    1.6149    0.0000    0.0000 C   0  0  0  0  0  0  0  0  0  0  0  0
    1.5539    0.0000    0.0000 C   0  0  0  0  0  0  0  0  0  0  0  0
    0.8109    0.0000    0.0000 C   0  0  0  0  0  0  0  0  0  0  0  0
    0.1289    0.0000    0.0000 C   0  0  0  0  0  0  0  0  0  0  0  0
    0.7499    0.0000    0.0000 C   0  0  0  0  0  0  0  0  0  0  0  0
    0.0069    0.0000    0.0000 O   0  0  0  0  0  0  0  0  0  0  0  0
    1.4319    0.0000    0.0000 O   0  0  0  0  0  0  0  0  0  0  0  0
    1.3710    0.0000    0.0000 C   0  0  0  0  0  0  0  0  0  0  0  0
    2.0007    0.0000    0.0000 C   0  0  0  0  0  0  0  0  0  0  0  0
    2.5059    0.0000    0.0000 O   0  0  0  0  0  0  0  0  0  0  0  0
    1.6885    0.0000    0.0000 C   0  0  0  0  0  0  0  0  0  0  0  0
    1.7139    0.0000    0.0000 C   0  0  0  0  0  0  0  0  0  0  0  0
    2.4407    0.0000    0.0000 O   0  0  0  0  0  0  0  0  0  0  0  0
    0.8658    0.0000    0.0000 C   0  0  0  0  0  0  0  0  0  0  0  0
    0.6695    0.0000    0.0000 C   0  0  0  0  0  0  0  0  0  0  0  0
   -0.1226    0.0000    0.0000 C   0  0  0  0  0  0  0  0  0  0  0  0
   -0.7184    0.0000    0.0000 C   0  0  0  0  0  0  0  0  0  0  0  0
   -0.5222    0.0000    0.0000 O   0  0  0  0  0  0  0  0  0  0  0  0
    0.2699    0.0000    0.0000 C   0  0  0  0  0  0  0  0  0  0  0  0
    0.4662    0.0000    0.0000 O   0  0  0  0  0  0  0  0  0  0  0  0
   -0.1297    0.0000    0.0000 C   0  0  0  0  0  0  0  0  0  0  0  0
   -0.9218    0.0000    0.0000 O   0  0  0  0  0  0  0  0  0  0  0  0
   -1.5176    0.0000    0.0000 C   0  0  0  0  0  0  0  0  0  0  0  0
   -2.3097    0.0000    0.0000 C   0  0  0  0  0  0  0  0  0  0  0  0
   -2.5059    0.0000    0.0000 O   0  0  0  0  0  0  0  0  0  0  0  0
   -1.3213    0.0000    0.0000 C   0  0  0  0  0  0  0  0  0  0  0  0
   -1.9172    0.0000    0.0000 O   0  0  0  0  0  0  0  0  0  0  0  0
   -0.5293    0.0000    0.0000 C   0  0  0  0  0  0  0  0  0  0  0  0
   -0.3330    0.0000    0.0000 O   0  0  0  0  0  0  0  0  0  0  0  0
    0.0666    0.0000    0.0000 C   0  0  0  0  0  0  0  0  0  0  0  0
    0.8587    0.0000    0.0000 O   0  0  0  0  0  0  0  0  0  0  0  0
  1  2  1  0      
  2  3  1  0      
  3  4  2  0      
  4  5  1  0      
  4  6  1  0      
  6  7  2  0      
  7  8  1  0      
  8  9  2  0      
  3  9  1  0      
  8 10  1  0      
 10 11  2  0      
 10 12  1  0      
 12 13  1  0      
 13 14  1  0      
 14 15  1  0      
 15 16  1  0      
 14 16  1  0      
 16 17  1  0      
 17 18  1  0      
 16 19  1  0      
 19 20  1  0      
 13 20  1  0      
 20 21  1  0      
 21 22  2  0      
 22 23  1  0      
 23 24  1  0      
 19 24  1  0      
 24 25  1  0      
 25 26  1  0      
 26 27  1  0      
 27 28  1  0      
 28 29  1  0      
 29 30  1  0      
 28 31  1  0      
 31 32  1  0      
 31 33  1  0      
 33 34  1  0      
 33 35  1  0      
 26 35  1  0      
 35 36  1  0      
M  END
>  <Bioactivity>
Extracted from Picrorhiza;Store the product in sealed,cool and dry condition

>  <CAS>
39012-20-9

>  <Col>
8

>  <Formula>
C23H28O13

>  <ID>
T2817

>  <Index>
377

>  <MOLENAME>
Picroside II

>  <MolWt>
512.46

>  <Pathways>
Others

>  <Plate>
PLATE 005

>  <QR code>
1151479874

>  <Receptor>
Others

>  <Reference>
1. Wang L, et al. Exp Ther Med. 2015 Apr;9(4):1253-1258. 

>  <Row>
F

>  <SMILES>
COC1=C(O)C=CC(=C1)C(=O)OC1C2OC2(CO)C2C1C=COC2OC1OC(CO)C(O)C(O)C1O

>  <Target>
Others

>  <Weight>
10.2mg

$$$$
Lab-1.sdf
  ChemDraw05232018482D

 22 23  0  0  0  0  0  0  0  0999 V2000
   -4.1579    0.0000    0.0000 O   0  0  0  0  0  0  0  0  0  0  0  0
   -0.1289    0.0000    0.0000 O   0  0  0  0  0  0  0  0  0  0  0  0
    0.5856    0.0000    0.0000 C   0  0  0  0  0  0  0  0  0  0  0  0
    1.3001    0.0000    0.0000 C   0  0  0  0  0  0  0  0  0  0  0  0
    2.0144    0.0000    0.0000 C   0  0  0  0  0  0  0  0  0  0  0  0
    2.7289    0.0000    0.0000 C   0  0  0  0  0  0  0  0  0  0  0  0
    2.7289    0.0000    0.0000 O   0  0  0  0  0  0  0  0  0  0  0  0
    3.4434    0.0000    0.0000 C   0  0  0  0  0  0  0  0  0  0  0  0
    3.4434    0.0000    0.0000 C   0  0  0  0  0  0  0  0  0  0  0  0
    4.1579    0.0000    0.0000 O   0  0  0  0  0  0  0  0  0  0  0  0
    2.7289    0.0000    0.0000 C   0  0  0  0  0  0  0  0  0  0  0  0
    2.0144    0.0000    0.0000 C   0  0  0  0  0  0  0  0  0  0  0  0
    1.3001    0.0000    0.0000 O   0  0  0  0  0  0  0  0  0  0  0  0
    0.5856    0.0000    0.0000 C   0  0  0  0  0  0  0  0  0  0  0  0
   -0.1289    0.0000    0.0000 C   0  0  0  0  0  0  0  0  0  0  0  0
   -0.1289    0.0000    0.0000 C   0  0  0  0  0  0  0  0  0  0  0  0
   -0.8433    0.0000    0.0000 C   0  0  0  0  0  0  0  0  0  0  0  0
   -0.8433    0.0000    0.0000 O   0  0  0  0  0  0  0  0  0  0  0  0
   -1.5578    0.0000    0.0000 C   0  0  0  0  0  0  0  0  0  0  0  0
   -2.2722    0.0000    0.0000 O   0  0  0  0  0  0  0  0  0  0  0  0
   -1.5578    0.0000    0.0000 C   0  0  0  0  0  0  0  0  0  0  0  0
   -0.8433    0.0000    0.0000 C   0  0  0  0  0  0  0  0  0  0  0  0
  2  3  1  0      
  3  4  1  0      
  4  5  1  0      
  5  6  2  0      
  6  7  1  0      
  6  8  1  0      
  8  9  2  0      
  9 10  1  0      
  9 11  1  0      
 11 12  2  0      
  5 12  1  0      
 12 13  1  0      
 13 14  1  0      
  3 14  1  0      
 14 15  1  0      
 15 16  2  0      
 16 17  1  0      
 17 18  1  0      
 17 19  2  0      
 19 20  1  0      
 19 21  1  0      
 21 22  2  0      
 15 22  1  0      
M  END
>  <Bioactivity>
An antioxidant flavonoid of plant origin; a free radical scavenger,preventing free radical-mediated damage in a variety of biological systems. For example,at physiological pH catechin suppressed DNA s
trand breaks by hydroxyl radicals.

>  <CAS>
225937-10-0

>  <Col>
9

>  <Formula>
C15H16O7

>  <ID>
T2778

>  <Index>
378

>  <MOLENAME>
(+)-Catechin Hydrate

>  <MolWt>
308.28

>  <Pathways>
Immunology/Inflammation

>  <Plate>
PLATE 005

>  <QR code>
1151479875

>  <Receptor>
antioxidant

>  <Reference>
1. Mehra P, et al. Indian J Exp Biol. 2013 Oct;51(10):823-7.

>  <Row>
F

>  <SMILES>
O.OC1CC2=C(O)C=C(O)C=C2OC1C1=CC(O)=C(O)C=C1

>  <Target>
ROS 

>  <Weight>
10.4mg

$$$$
Lab-1.sdf
  ChemDraw05232018482D

 27 29  0  0  0  0  0  0  0  0999 V2000
   -5.2294    0.0000    0.0000 Cl  0  5  0  0  0  0  0  0  0  0  0  0
    5.2294    0.0000    0.0000 C   0  0  0  0  0  0  0  0  0  0  0  0
    4.6893    0.0000    0.0000 O   0  0  0  0  0  0  0  0  0  0  0  0
    3.8792    0.0000    0.0000 C   0  0  0  0  0  0  0  0  0  0  0  0
    3.3390    0.0000    0.0000 C   0  0  0  0  0  0  0  0  0  0  0  0
    3.6091    0.0000    0.0000 O   0  0  0  0  0  0  0  0  0  0  0  0
    3.0689    0.0000    0.0000 C   0  0  0  0  0  0  0  0  0  0  0  0
    2.5288    0.0000    0.0000 C   0  0  0  0  0  0  0  0  0  0  0  0
    2.2588    0.0000    0.0000 C   0  0  0  0  0  0  0  0  0  0  0  0
    2.7989    0.0000    0.0000 C   0  0  0  0  0  0  0  0  0  0  0  0
    2.5288    0.0000    0.0000 C   0  0  0  0  0  0  0  0  0  0  0  0
    1.7187    0.0000    0.0000 C   0  0  0  0  0  0  0  0  0  0  0  0
    1.1786    0.0000    0.0000 N   0  3  0  0  0  0  0  0  0  0  0  0
    1.4487    0.0000    0.0000 C   0  0  0  0  0  0  0  0  0  0  0  0
    0.9086    0.0000    0.0000 C   0  0  0  0  0  0  0  0  0  0  0  0
    0.0984    0.0000    0.0000 C   0  0  0  0  0  0  0  0  0  0  0  0
   -0.4418    0.0000    0.0000 C   0  0  0  0  0  0  0  0  0  0  0  0
   -1.2519    0.0000    0.0000 C   0  0  0  0  0  0  0  0  0  0  0  0
   -1.5219    0.0000    0.0000 C   0  0  0  0  0  0  0  0  0  0  0  0
   -2.3321    0.0000    0.0000 O   0  0  0  0  0  0  0  0  0  0  0  0
   -2.8722    0.0000    0.0000 C   0  0  0  0  0  0  0  0  0  0  0  0
   -0.9818    0.0000    0.0000 C   0  0  0  0  0  0  0  0  0  0  0  0
   -1.2519    0.0000    0.0000 O   0  0  0  0  0  0  0  0  0  0  0  0
   -0.7118    0.0000    0.0000 C   0  0  0  0  0  0  0  0  0  0  0  0
   -0.1717    0.0000    0.0000 C   0  0  0  0  0  0  0  0  0  0  0  0
    0.3685    0.0000    0.0000 C   0  0  0  0  0  0  0  0  0  0  0  0
    3.6091    0.0000    0.0000 C   0  0  0  0  0  0  0  0  0  0  0  0
  2  3  1  0      
  3  4  1  0      
  4  5  2  0      
  5  6  1  0      
  6  7  1  0      
  5  8  1  0      
  8  9  2  0      
  9 10  1  0      
 10 11  1  0      
 11 12  1  0      
 12 13  1  0      
 13 14  2  0      
  9 14  1  0      
 14 15  1  0      
 15 16  2  0      
 16 17  1  0      
 17 18  2  0      
 18 19  1  0      
 19 20  1  0      
 20 21  1  0      
 19 22  2  0      
 22 23  1  0      
 23 24  1  0      
 22 25  1  0      
 16 25  1  0      
 25 26  2  0      
 13 26  1  0      
 10 27  2  0      
  4 27  1  0      
M  CHG  2   1  -1  13   1
M  END
>  <Bioactivity>
Palmatine chloride an isoquinoline alkaloid, is an important medicinal herbal extract with diverse pharmacological and biological properties. 

>  <CAS>
10605-02-4

>  <Col>
10

>  <Formula>
C21H22ClNO4

>  <ID>
T2718

>  <Index>
379

>  <MOLENAME>
Palmatine chloride

>  <MolWt>
387.87

>  <Pathways>
Others

>  <Plate>
PLATE 005

>  <QR code>
1151479876

>  <Receptor>
Others

>  <Reference>
1. Chen-Wen Xiao, er al. BMC Complement Altern Med. 2015; 15: 177.

>  <Row>
F

>  <SMILES>
[Cl-].COC1=C(OC)C=C2C(CC[N+]3=C2C=C2C=CC(OC)=C(OC)C2=C3)=C1

>  <Target>
Others

>  <Weight>
10.2mg

$$$$
Lab-1.sdf
  ChemDraw05232018482D

 22 25  0  0  0  0  0  0  0  0999 V2000
    2.7358    0.0000    0.0000 C   0  0  0  0  0  0  0  0  0  0  0  0
    2.2294    0.0000    0.0000 C   0  0  0  0  0  0  0  0  0  0  0  0
    2.4587    0.0000    0.0000 C   0  0  0  0  0  0  0  0  0  0  0  0
    1.7759    0.0000    0.0000 O   0  0  0  0  0  0  0  0  0  0  0  0
    1.1245    0.0000    0.0000 C   0  0  0  0  0  0  0  0  0  0  0  0
    1.4048    0.0000    0.0000 C   0  0  0  0  0  0  0  0  0  0  0  0
    0.8730    0.0000    0.0000 C   0  0  0  0  0  0  0  0  0  0  0  0
    1.1533    0.0000    0.0000 O   0  0  0  0  0  0  0  0  0  0  0  0
    0.0609    0.0000    0.0000 C   0  0  0  0  0  0  0  0  0  0  0  0
   -0.4710    0.0000    0.0000 O   0  0  0  0  0  0  0  0  0  0  0  0
   -0.2195    0.0000    0.0000 C   0  0  0  0  0  0  0  0  0  0  0  0
    0.3124    0.0000    0.0000 C   0  0  0  0  0  0  0  0  0  0  0  0
    0.0321    0.0000    0.0000 C   0  0  0  0  0  0  0  0  0  0  0  0
   -0.7801    0.0000    0.0000 C   0  0  0  0  0  0  0  0  0  0  0  0
   -1.3119    0.0000    0.0000 C   0  0  0  0  0  0  0  0  0  0  0  0
   -1.0316    0.0000    0.0000 C   0  0  0  0  0  0  0  0  0  0  0  0
   -1.5634    0.0000    0.0000 C   0  0  0  0  0  0  0  0  0  0  0  0
   -2.3755    0.0000    0.0000 C   0  0  0  0  0  0  0  0  0  0  0  0
   -2.6558    0.0000    0.0000 C   0  0  0  0  0  0  0  0  0  0  0  0
   -2.1240    0.0000    0.0000 C   0  0  0  0  0  0  0  0  0  0  0  0
   -2.7358    0.0000    0.0000 C   0  0  0  0  0  0  0  0  0  0  0  0
   -2.0072    0.0000    0.0000 C   0  0  0  0  0  0  0  0  0  0  0  0
  1  2  1  0      
  2  3  1  0      
  3  4  1  0      
  4  5  1  0      
  5  6  2  0      
  2  6  1  0      
  6  7  1  0      
  7  8  2  0      
  7  9  1  0      
  9 10  2  0      
  9 11  1  0      
 11 12  2  0      
  5 12  1  0      
 12 13  1  0      
 13 14  2  0      
 14 15  1  0      
 15 16  2  0      
 11 16  1  0      
 16 17  1  0      
 17 18  1  0      
 18 19  1  0      
 19 20  1  0      
 15 20  1  0      
 20 21  1  0      
 20 22  1  0      
M  END
>  <Bioactivity>
Cryptotanshinone is a STAT3 inhibitor with IC50 of 4.6 ¦ÌM in a cell-free assay, strongly inhibits phosphorylation of STAT3 Tyr705, with a small effect on STAT3 Ser727, but none against STAT1 nor STAT
5.

>  <CAS>
35825-57-1

>  <Col>
11

>  <Formula>
C19H20O3

>  <ID>
T2814

>  <Index>
380

>  <MOLENAME>
Cryptotanshinone

>  <MolWt>
296.37

>  <Pathways>
JAK/STAT Signaling

>  <Plate>
PLATE 005

>  <QR code>
1151479877

>  <Receptor>
STAT3

>  <Reference>
1. Shin DS, et al. Y Res, 2009, 69(1), 193-202.

>  <Row>
F

>  <SMILES>
CC1COC2=C1C(=O)C(=O)C1=C2C=CC2=C1CCCC2(C)C

>  <Target>
STAT inhibitor

>  <Weight>
10.4mg

$$$$
Lab-1.sdf
  ChemDraw05232018482D

 33 35  0  0  0  0  0  0  0  0999 V2000
   -4.4563    0.0000    0.0000 Cl  0  5  0  0  0  0  0  0  0  0  0  0
   -1.2595    0.0000    0.0000 C   0  0  0  0  0  0  0  0  0  0  0  0
   -0.5450    0.0000    0.0000 N   0  3  0  0  0  0  0  0  0  0  0  0
    0.1694    0.0000    0.0000 C   0  0  0  0  0  0  0  0  0  0  0  0
   -0.5450    0.0000    0.0000 C   0  0  0  0  0  0  0  0  0  0  0  0
    0.1694    0.0000    0.0000 C   0  0  0  0  0  0  0  0  0  0  0  0
    0.8839    0.0000    0.0000 C   0  0  0  0  0  0  0  0  0  0  0  0
    1.5984    0.0000    0.0000 C   0  0  0  0  0  0  0  0  0  0  0  0
    1.5984    0.0000    0.0000 C   0  0  0  0  0  0  0  0  0  0  0  0
    2.3129    0.0000    0.0000 C   0  0  0  0  0  0  0  0  0  0  0  0
    2.3129    0.0000    0.0000 O   0  0  0  0  0  0  0  0  0  0  0  0
    3.0273    0.0000    0.0000 C   0  0  0  0  0  0  0  0  0  0  0  0
    3.0273    0.0000    0.0000 C   0  0  0  0  0  0  0  0  0  0  0  0
    3.7418    0.0000    0.0000 C   0  0  0  0  0  0  0  0  0  0  0  0
    4.4563    0.0000    0.0000 C   0  0  0  0  0  0  0  0  0  0  0  0
    4.4563    0.0000    0.0000 C   0  0  0  0  0  0  0  0  0  0  0  0
    3.7418    0.0000    0.0000 C   0  0  0  0  0  0  0  0  0  0  0  0
    3.7418    0.0000    0.0000 O   0  0  0  0  0  0  0  0  0  0  0  0
    2.3129    0.0000    0.0000 C   0  0  0  0  0  0  0  0  0  0  0  0
    2.7002    0.0000    0.0000 C   0  0  0  0  0  0  0  0  0  0  0  0
    1.9255    0.0000    0.0000 O   0  0  0  0  0  0  0  0  0  0  0  0
    0.8839    0.0000    0.0000 C   0  0  0  0  0  0  0  0  0  0  0  0
    0.8839    0.0000    0.0000 O   0  0  0  0  0  0  0  0  0  0  0  0
    0.1694    0.0000    0.0000 C   0  0  0  0  0  0  0  0  0  0  0  0
    0.1694    0.0000    0.0000 O   0  0  0  0  0  0  0  0  0  0  0  0
   -0.5450    0.0000    0.0000 C   0  0  0  0  0  0  0  0  0  0  0  0
   -0.5450    0.0000    0.0000 O   0  0  0  0  0  0  0  0  0  0  0  0
   -1.2595    0.0000    0.0000 C   0  0  0  0  0  0  0  0  0  0  0  0
   -1.9740    0.0000    0.0000 C   0  0  0  0  0  0  0  0  0  0  0  0
   -1.9740    0.0000    0.0000 N   0  0  0  0  0  0  0  0  0  0  0  0
   -2.6884    0.0000    0.0000 O   0  0  0  0  0  0  0  0  0  0  0  0
   -1.2595    0.0000    0.0000 C   0  0  0  0  0  0  0  0  0  0  0  0
   -1.9740    0.0000    0.0000 O   0  0  0  0  0  0  0  0  0  0  0  0
  2  3  1  0      
  3  4  1  0      
  3  5  1  0      
  5  6  1  0      
  6  7  1  0      
  7  8  1  0      
  8  9  1  0      
  9 10  2  0      
 10 11  1  0      
 10 12  1  0      
 12 13  2  0      
 13 14  1  0      
 14 15  2  0      
 15 16  1  0      
 16 17  2  0      
 12 17  1  0      
 17 18  1  0      
 13 19  1  0      
  8 19  1  0      
 19 20  1  0      
 19 21  1  0      
  9 22  1  0      
 22 23  2  0      
 22 24  1  0      
  6 24  1  0      
 24 25  1  0      
 24 26  1  0      
 26 27  1  0      
 26 28  2  0      
 28 29  1  0      
 29 30  1  0      
 29 31  2  0      
 28 32  1  0      
  5 32  1  0      
 32 33  2  0      
M  CHG  2   1  -1   3   1
M  END
>  <Bioactivity>
Tetracycline hydrochloride is a hydrochloride salt of tetracycline that is a broad-spectrum polyketide antibiotic.

>  <CAS>
64-75-5

>  <Col>
2

>  <Formula>
C22H24N2O8HCl

>  <ID>
T0912

>  <Index>
381

>  <MOLENAME>
Tetracycline hydrochloride

>  <MolWt>
480.9

>  <Pathways>
Microbiology & Virology

>  <Plate>
PLATE 005

>  <QR code>
1151479865

>  <Receptor>
30S ribosomal protein

>  <Reference>
1. Buck MA, Cooperman BS. Biochemistry. 1990 Jun 5;29(22):5374-9. 

>  <Row>
G

>  <SMILES>
[Cl-].C[NH+](C)C1C2CC3C(=C(O)C4=C(C=CC=C4O)C3(C)O)C(=O)C2(O)C(O)=C(C(N)=O)C1=O

>  <Target>
Antibiotic

>  <Weight>
10mg

$$$$
Lab-1.sdf
  ChemDraw05232018482D

 25 25  0  0  0  0  0  0  0  0999 V2000
    0.0155    0.0000    0.0000 Cl  0  0  0  0  0  0  0  0  0  0  0  0
    2.0191    0.0000    0.0000 Cl  0  0  0  0  0  0  0  0  0  0  0  0
   -3.2151    0.0000    0.0000 C   0  0  0  0  0  0  0  0  0  0  0  0
   -2.5006    0.0000    0.0000 N   0  0  0  0  0  0  0  0  0  0  0  0
   -1.7862    0.0000    0.0000 C   0  0  0  0  0  0  0  0  0  0  0  0
   -1.7862    0.0000    0.0000 C   0  0  0  0  0  0  0  0  0  0  0  0
   -2.5006    0.0000    0.0000 O   0  0  0  0  0  0  0  0  0  0  0  0
   -1.0717    0.0000    0.0000 C   0  0  0  0  0  0  0  0  0  0  0  0
   -1.0717    0.0000    0.0000 N   0  0  0  0  0  0  0  0  0  0  0  0
   -0.3573    0.0000    0.0000 C   0  0  0  0  0  0  0  0  0  0  0  0
   -0.3573    0.0000    0.0000 C   0  0  0  0  0  0  0  0  0  0  0  0
    0.3572    0.0000    0.0000 O   0  0  0  0  0  0  0  0  0  0  0  0
    1.0717    0.0000    0.0000 C   0  0  0  0  0  0  0  0  0  0  0  0
    1.0717    0.0000    0.0000 O   0  0  0  0  0  0  0  0  0  0  0  0
    1.0717    0.0000    0.0000 C   0  0  0  0  0  0  0  0  0  0  0  0
    1.7861    0.0000    0.0000 O   0  0  0  0  0  0  0  0  0  0  0  0
    2.5006    0.0000    0.0000 C   0  0  0  0  0  0  0  0  0  0  0  0
    3.2151    0.0000    0.0000 C   0  0  0  0  0  0  0  0  0  0  0  0
    2.5006    0.0000    0.0000 C   0  0  0  0  0  0  0  0  0  0  0  0
    1.7861    0.0000    0.0000 C   0  0  0  0  0  0  0  0  0  0  0  0
    1.7861    0.0000    0.0000 O   0  0  0  0  0  0  0  0  0  0  0  0
    0.3572    0.0000    0.0000 O   0  0  0  0  0  0  0  0  0  0  0  0
   -0.3573    0.0000    0.0000 C   0  0  0  0  0  0  0  0  0  0  0  0
   -1.0717    0.0000    0.0000 C   0  0  0  0  0  0  0  0  0  0  0  0
   -1.0717    0.0000    0.0000 O   0  0  0  0  0  0  0  0  0  0  0  0
  3  4  1  0      
  4  5  1  0      
  5  6  1  0      
  6  7  1  0      
  6  8  1  0      
  8  9  1  0      
  9 10  1  0      
  8 11  1  0      
 11 12  1  0      
 12 13  1  0      
 13 14  1  0      
 13 15  1  0      
 15 16  1  0      
 16 17  1  0      
 17 18  1  0      
 17 19  1  0      
 19 20  1  0      
 13 20  1  0      
 20 21  2  0      
 15 22  1  0      
 22 23  1  0      
 11 23  1  0      
 23 24  1  0      
  5 24  1  0      
 24 25  1  0      
M  END
>  <Bioactivity>
Spectinomycin Dihydrochloride is a new parenteral antibiotic prepared from Streptomyces spectabilis.

>  <CAS>
21736-83-4

>  <Col>
3

>  <Formula>
C14H26CL2N2O7

>  <ID>
T0788

>  <Index>
382

>  <MOLENAME>
Spectinomycin dihydrochloride

>  <MolWt>
405.27

>  <Pathways>
Microbiology & Virology

>  <Plate>
PLATE 005

>  <QR code>
1151479864

>  <Receptor>
30S ribosomal protein

>  <Reference>
1. Gordeev VK, et al. Genetika. 1983, 19(2):217-20. 

>  <Row>
G

>  <SMILES>
Cl.Cl.CNC1C(O)C(NC)C2OC3(O)C(OC(C)CC3=O)OC2C1O

>  <Target>
Antibiotic

>  <Weight>
10.3mg

$$$$
Lab-1.sdf
  ChemDraw05232018482D

 44 49  0  0  0  0  0  0  0  0999 V2000
   -1.3593    0.0000    0.0000 C   0  0  0  0  0  0  0  0  0  0  0  0
   -1.6315    0.0000    0.0000 O   0  0  0  0  0  0  0  0  0  0  0  0
   -1.0931    0.0000    0.0000 C   0  0  0  0  0  0  0  0  0  0  0  0
   -1.3652    0.0000    0.0000 C   0  0  0  0  0  0  0  0  0  0  0  0
   -0.8268    0.0000    0.0000 C   0  0  0  0  0  0  0  0  0  0  0  0
   -0.0162    0.0000    0.0000 C   0  0  0  0  0  0  0  0  0  0  0  0
    0.5223    0.0000    0.0000 C   0  0  0  0  0  0  0  0  0  0  0  0
    1.3328    0.0000    0.0000 N   0  0  0  0  0  0  0  0  0  0  0  0
    1.8712    0.0000    0.0000 C   0  0  0  0  0  0  0  0  0  0  0  0
    2.6818    0.0000    0.0000 C   0  0  0  0  0  0  0  0  0  0  0  0
    2.9539    0.0000    0.0000 C   0  0  0  0  0  0  0  0  0  0  0  0
    2.4155    0.0000    0.0000 C   0  0  0  0  0  0  0  0  0  0  0  0
    2.8436    0.0000    0.0000 N   0  0  0  0  0  0  0  0  0  0  0  0
    3.6466    0.0000    0.0000 C   0  0  0  0  0  0  0  0  0  0  0  0
    3.7148    0.0000    0.0000 C   0  0  0  0  0  0  0  0  0  0  0  0
    4.4609    0.0000    0.0000 C   0  0  0  0  0  0  0  0  0  0  0  0
    5.1389    0.0000    0.0000 C   0  0  0  0  0  0  0  0  0  0  0  0
    5.0707    0.0000    0.0000 C   0  0  0  0  0  0  0  0  0  0  0  0
    5.7486    0.0000    0.0000 O   0  0  0  0  0  0  0  0  0  0  0  0
    6.4948    0.0000    0.0000 C   0  0  0  0  0  0  0  0  0  0  0  0
    4.3246    0.0000    0.0000 C   0  0  0  0  0  0  0  0  0  0  0  0
    1.6050    0.0000    0.0000 C   0  0  0  0  0  0  0  0  0  0  0  0
    1.0666    0.0000    0.0000 C   0  0  0  0  0  0  0  0  0  0  0  0
    0.2559    0.0000    0.0000 C   0  0  0  0  0  0  0  0  0  0  0  0
   -0.2825    0.0000    0.0000 C   0  0  0  0  0  0  0  0  0  0  0  0
   -0.0104    0.0000    0.0000 C   0  0  0  0  0  0  0  0  0  0  0  0
   -0.5488    0.0000    0.0000 O   0  0  0  0  0  0  0  0  0  0  0  0
    0.8002    0.0000    0.0000 O   0  0  0  0  0  0  0  0  0  0  0  0
    1.0724    0.0000    0.0000 C   0  0  0  0  0  0  0  0  0  0  0  0
   -2.1757    0.0000    0.0000 O   0  0  0  0  0  0  0  0  0  0  0  0
   -2.7142    0.0000    0.0000 C   0  0  0  0  0  0  0  0  0  0  0  0
   -2.4420    0.0000    0.0000 O   0  0  0  0  0  0  0  0  0  0  0  0
   -3.5247    0.0000    0.0000 C   0  0  0  0  0  0  0  0  0  0  0  0
   -4.0631    0.0000    0.0000 C   0  0  0  0  0  0  0  0  0  0  0  0
   -4.8737    0.0000    0.0000 C   0  0  0  0  0  0  0  0  0  0  0  0
   -5.4121    0.0000    0.0000 O   0  0  0  0  0  0  0  0  0  0  0  0
   -6.2226    0.0000    0.0000 C   0  0  0  0  0  0  0  0  0  0  0  0
   -5.1458    0.0000    0.0000 C   0  0  0  0  0  0  0  0  0  0  0  0
   -5.9564    0.0000    0.0000 O   0  0  0  0  0  0  0  0  0  0  0  0
   -6.4948    0.0000    0.0000 C   0  0  0  0  0  0  0  0  0  0  0  0
   -4.6074    0.0000    0.0000 C   0  0  0  0  0  0  0  0  0  0  0  0
   -4.8795    0.0000    0.0000 O   0  0  0  0  0  0  0  0  0  0  0  0
   -4.3411    0.0000    0.0000 C   0  0  0  0  0  0  0  0  0  0  0  0
   -3.7969    0.0000    0.0000 C   0  0  0  0  0  0  0  0  0  0  0  0
  1  2  1  0      
  2  3  1  0      
  3  4  1  0      
  4  5  1  0      
  5  6  1  0      
  6  7  1  0      
  7  8  1  0      
  8  9  1  0      
  9 10  1  0      
 10 11  1  0      
 11 12  2  0      
 12 13  1  0      
 13 14  1  0      
 14 15  2  0      
 11 15  1  0      
 15 16  1  0      
 16 17  2  0      
 17 18  1  0      
 18 19  1  0      
 19 20  1  0      
 18 21  2  0      
 14 21  1  0      
 12 22  1  0      
  8 22  1  0      
 22 23  1  0      
 23 24  1  0      
  6 24  1  0      
 24 25  1  0      
  3 25  1  0      
 25 26  1  0      
 26 27  2  0      
 26 28  1  0      
 28 29  1  0      
  4 30  1  0      
 30 31  1  0      
 31 32  2  0      
 31 33  1  0      
 33 34  2  0      
 34 35  1  0      
 35 36  1  0      
 36 37  1  0      
 35 38  2  0      
 38 39  1  0      
 39 40  1  0      
 38 41  1  0      
 41 42  1  0      
 42 43  1  0      
 41 44  2  0      
 33 44  1  0      
M  END
>  <Bioactivity>
Reserpine (Serpalan) is an indole alkaloid antipsychotic and antihypertensive drug that irreversibly blocks the vesicular monoamine transporter (VMAT).

>  <CAS>
50-55-5

>  <Col>
4

>  <Formula>
C33H40N2O9

>  <ID>
T0791

>  <Index>
383

>  <MOLENAME>
Reserpine

>  <MolWt>
608.68

>  <Pathways>
Metabolism

>  <Plate>
PLATE 005

>  <QR code>
1151479863

>  <Receptor>
SVAT; Bile salt export pump; MRP1

>  <Reference>
1. Sievert MK, et al. Anal Biochem. 2007 Aug 1;367(1):68-78.

>  <Row>
G

>  <SMILES>
COC1C(CC2CN3CCC4=C(NC5=C4C=CC(OC)=C5)C3CC2C1C(=O)OC)OC(=O)C1=CC(OC)=C(OC)C(OC)=C1

>  <Target>
Billiation inhibitor

>  <Weight>
10.2mg

$$$$
Lab-1.sdf
  ChemDraw05232018482D

 27 24  0  0  0  0  0  0  0  0999 V2000
   -1.6824    0.0000    0.0000 O   0  0  0  0  0  0  0  0  0  0  0  0
    0.6747    0.0000    0.0000 O   0  0  0  0  0  0  0  0  0  0  0  0
    3.0319    0.0000    0.0000 O   0  0  0  0  0  0  0  0  0  0  0  0
   -1.6824    0.0000    0.0000 O   0  0  0  0  0  0  0  0  0  0  0  0
    0.6747    0.0000    0.0000 O   0  0  0  0  0  0  0  0  0  0  0  0
    3.2676    0.0000    0.0000 O   0  0  0  0  0  0  0  0  0  0  0  0
    3.2676    0.0000    0.0000 S   0  0  0  0  0  0  0  0  0  0  0  0
    3.2676    0.0000    0.0000 O   0  0  0  0  0  0  0  0  0  0  0  0
    4.0926    0.0000    0.0000 O   0  0  0  0  0  0  0  0  0  0  0  0
    2.4426    0.0000    0.0000 O   0  0  0  0  0  0  0  0  0  0  0  0
   -4.0926    0.0000    0.0000 C   0  0  0  0  0  0  0  0  0  0  0  0
   -4.0926    0.0000    0.0000 C   0  0  0  0  0  0  0  0  0  0  0  0
   -3.3781    0.0000    0.0000 C   0  0  0  0  0  0  0  0  0  0  0  0
   -2.6636    0.0000    0.0000 N   0  0  0  0  0  0  0  0  0  0  0  0
   -2.0803    0.0000    0.0000 C   0  0  0  0  0  0  0  0  0  0  0  0
   -1.2553    0.0000    0.0000 C   0  0  0  0  0  0  0  0  0  0  0  0
   -1.9167    0.0000    0.0000 C   0  0  0  0  0  0  0  0  0  0  0  0
   -2.0803    0.0000    0.0000 C   0  0  0  0  0  0  0  0  0  0  0  0
   -1.2553    0.0000    0.0000 C   0  0  0  0  0  0  0  0  0  0  0  0
   -0.6719    0.0000    0.0000 N   0  0  0  0  0  0  0  0  0  0  0  0
    0.0426    0.0000    0.0000 C   0  0  0  0  0  0  0  0  0  0  0  0
    0.7571    0.0000    0.0000 C   0  0  0  0  0  0  0  0  0  0  0  0
    0.7571    0.0000    0.0000 C   0  0  0  0  0  0  0  0  0  0  0  0
    0.0426    0.0000    0.0000 C   0  0  0  0  0  0  0  0  0  0  0  0
   -0.6719    0.0000    0.0000 C   0  0  0  0  0  0  0  0  0  0  0  0
   -2.6636    0.0000    0.0000 C   0  0  0  0  0  0  0  0  0  0  0  0
   -3.3781    0.0000    0.0000 C   0  0  0  0  0  0  0  0  0  0  0  0
  6  7  1  0      
  7  8  1  0      
  7  9  2  0      
  7 10  2  0      
 11 12  1  0      
 12 13  1  0      
 13 14  1  0      
 14 15  1  0      
 15 16  1  0      
 16 17  1  0      
 17 18  1  0      
 18 19  1  0      
 19 20  1  0      
 20 21  1  0      
 21 22  1  0      
 22 23  1  0      
 23 24  1  0      
 24 25  1  0      
 16 25  1  0      
 20 25  1  0      
 18 26  1  0      
 14 26  1  0      
 26 27  1  0      
 11 27  1  0      
M  END
>  <Bioactivity>
Sparteine is a class 1a antiarrhythmic agent; a sodium channel blocker. It is an alkaloid and can be extracted from scotch broom. It is the predominant alkaloid in Lupinus mutabilis, and is thought to
 chelate the bivalents calcium and magnesium. It is not FDA approved for human use as an antiarrhythmic agent, and it is not included in the Vaughn Williams classification of antiarrhythmic drugs.

>  <CAS>
6160-12-9

>  <Col>
5

>  <Formula>
C15H38N2O9S

>  <ID>
T0792

>  <Index>
384

>  <MOLENAME>
(-)-Sparteine sulfate pentahydrate

>  <MolWt>
422.54

>  <Pathways>
Metabolism

>  <Plate>
PLATE 005

>  <QR code>
1151479862

>  <Receptor>
CYP2D

>  <Reference>
1. Preissner S, et al. Nucleic Acids Res. 2010 Jan; 38(Database issue):D237-43. 

>  <Row>
G

>  <SMILES>
O.O.O.O.O.OS(O)(=O)=O.C1CCN2CC3CC(CN4CCCCC34)C2C1

>  <Target>
CYP inhibitor

>  <Weight>
10.3mg

$$$$
Lab-1.sdf
  ChemDraw05232018482D

 38 39  0  0  0  0  0  0  0  0999 V2000
   -4.7508    0.0000    0.0000 O   0  0  0  0  0  0  0  0  0  0  0  0
   -4.7508    0.0000    0.0000 S   0  0  0  0  0  0  0  0  0  0  0  0
   -4.7508    0.0000    0.0000 O   0  0  0  0  0  0  0  0  0  0  0  0
   -3.9258    0.0000    0.0000 O   0  0  0  0  0  0  0  0  0  0  0  0
   -5.5758    0.0000    0.0000 O   0  0  0  0  0  0  0  0  0  0  0  0
    4.8613    0.0000    0.0000 N   0  0  0  0  0  0  0  0  0  0  0  0
    4.1468    0.0000    0.0000 C   0  0  0  0  0  0  0  0  0  0  0  0
    4.1468    0.0000    0.0000 C   0  0  0  0  0  0  0  0  0  0  0  0
    3.4323    0.0000    0.0000 O   0  0  0  0  0  0  0  0  0  0  0  0
    3.4323    0.0000    0.0000 C   0  0  0  0  0  0  0  0  0  0  0  0
    2.7180    0.0000    0.0000 O   0  0  0  0  0  0  0  0  0  0  0  0
    2.0035    0.0000    0.0000 C   0  0  0  0  0  0  0  0  0  0  0  0
    2.0035    0.0000    0.0000 C   0  0  0  0  0  0  0  0  0  0  0  0
    2.7180    0.0000    0.0000 N   0  0  0  0  0  0  0  0  0  0  0  0
    1.2890    0.0000    0.0000 C   0  0  0  0  0  0  0  0  0  0  0  0
    0.5746    0.0000    0.0000 C   0  0  0  0  0  0  0  0  0  0  0  0
   -0.1398    0.0000    0.0000 N   0  0  0  0  0  0  0  0  0  0  0  0
    0.5746    0.0000    0.0000 C   0  0  0  0  0  0  0  0  0  0  0  0
   -0.1398    0.0000    0.0000 O   0  0  0  0  0  0  0  0  0  0  0  0
   -0.1398    0.0000    0.0000 C   0  0  0  0  0  0  0  0  0  0  0  0
    0.5746    0.0000    0.0000 O   0  0  0  0  0  0  0  0  0  0  0  0
    0.5746    0.0000    0.0000 C   0  0  0  0  0  0  0  0  0  0  0  0
    1.2890    0.0000    0.0000 C   0  0  0  0  0  0  0  0  0  0  0  0
    2.0035    0.0000    0.0000 O   0  0  0  0  0  0  0  0  0  0  0  0
   -0.1398    0.0000    0.0000 C   0  0  0  0  0  0  0  0  0  0  0  0
   -0.1398    0.0000    0.0000 O   0  0  0  0  0  0  0  0  0  0  0  0
   -0.8543    0.0000    0.0000 C   0  0  0  0  0  0  0  0  0  0  0  0
   -1.5688    0.0000    0.0000 N   0  0  0  0  0  0  0  0  0  0  0  0
   -0.8543    0.0000    0.0000 C   0  0  0  0  0  0  0  0  0  0  0  0
   -1.5688    0.0000    0.0000 O   0  0  0  0  0  0  0  0  0  0  0  0
    1.2890    0.0000    0.0000 C   0  0  0  0  0  0  0  0  0  0  0  0
    1.2890    0.0000    0.0000 O   0  0  0  0  0  0  0  0  0  0  0  0
    4.1468    0.0000    0.0000 C   0  0  0  0  0  0  0  0  0  0  0  0
    4.1468    0.0000    0.0000 O   0  0  0  0  0  0  0  0  0  0  0  0
    4.8613    0.0000    0.0000 C   0  0  0  0  0  0  0  0  0  0  0  0
    5.5758    0.0000    0.0000 O   0  0  0  0  0  0  0  0  0  0  0  0
    4.8613    0.0000    0.0000 C   0  0  0  0  0  0  0  0  0  0  0  0
    5.5758    0.0000    0.0000 O   0  0  0  0  0  0  0  0  0  0  0  0
  1  2  1  0      
  2  3  1  0      
  2  4  2  0      
  2  5  2  0      
  6  7  1  0      
  7  8  1  0      
  8  9  1  0      
  9 10  1  0      
 10 11  1  0      
 11 12  1  0      
 12 13  1  0      
 13 14  1  0      
 13 15  1  0      
 15 16  1  0      
 16 17  1  0      
 16 18  1  0      
 18 19  1  0      
 19 20  1  0      
 20 21  1  0      
 21 22  1  0      
 22 23  1  0      
 23 24  1  0      
 22 25  1  0      
 25 26  1  0      
 25 27  1  0      
 27 28  1  0      
 27 29  1  0      
 20 29  1  0      
 29 30  1  0      
 18 31  1  0      
 12 31  1  0      
 31 32  1  0      
 10 33  1  0      
 33 34  1  0      
 33 35  1  0      
 35 36  1  0      
 35 37  1  0      
  8 37  1  0      
 37 38  1  0      
M  END
>  <Bioactivity>
Kanamycin sulfate is an aminoglycoside bacteriocidal antibiotic.

>  <CAS>
25389-94-0

>  <Col>
6

>  <Formula>
C18H38N4O15S

>  <ID>
T0793

>  <Index>
385

>  <MOLENAME>
Kanamycin sulfate

>  <MolWt>
582.58

>  <Pathways>
Microbiology & Virology

>  <Plate>
PLATE 005

>  <QR code>
1151479861

>  <Receptor>
30S ribosomal protein; 16S ribosomal protein

>  <Reference>
1. Stavropoulos TA, Strathdee CA. Genomics. 2001 Feb 15;72(1):99-104.

>  <Row>
G

>  <SMILES>
OS(O)(=O)=O.NCC1OC(OC2C(N)CC(N)C(OC3OC(CO)C(O)C(N)C3O)C2O)C(O)C(O)C1O

>  <Target>
Antibiotic

>  <Weight>
10.4mg

$$$$
Lab-1.sdf
  ChemDraw05232018482D

 43 47  0  0  0  0  0  0  0  0999 V2000
    2.1434    0.0000    0.0000 C   0  0  0  0  0  0  0  0  0  0  0  0
    2.1434    0.0000    0.0000 C   0  0  0  0  0  0  0  0  0  0  0  0
    1.4289    0.0000    0.0000 O   0  0  0  0  0  0  0  0  0  0  0  0
    1.4289    0.0000    0.0000 C   0  0  0  0  0  0  0  0  0  0  0  0
    0.7144    0.0000    0.0000 O   0  0  0  0  0  0  0  0  0  0  0  0
   -0.0001    0.0000    0.0000 C   0  0  0  0  0  0  0  0  0  0  0  0
   -0.7145    0.0000    0.0000 C   0  0  0  0  0  0  0  0  0  0  0  0
   -0.7145    0.0000    0.0000 O   0  0  0  0  0  0  0  0  0  0  0  0
   -1.4289    0.0000    0.0000 C   0  0  0  0  0  0  0  0  0  0  0  0
   -1.4289    0.0000    0.0000 O   0  0  0  0  0  0  0  0  0  0  0  0
   -0.7145    0.0000    0.0000 C   0  0  0  0  0  0  0  0  0  0  0  0
   -0.7145    0.0000    0.0000 C   0  0  0  0  0  0  0  0  0  0  0  0
   -0.0001    0.0000    0.0000 O   0  0  0  0  0  0  0  0  0  0  0  0
    0.7144    0.0000    0.0000 C   0  0  0  0  0  0  0  0  0  0  0  0
    1.4289    0.0000    0.0000 C   0  0  0  0  0  0  0  0  0  0  0  0
    2.1434    0.0000    0.0000 C   0  0  0  0  0  0  0  0  0  0  0  0
    2.8578    0.0000    0.0000 O   0  0  0  0  0  0  0  0  0  0  0  0
    2.1434    0.0000    0.0000 C   0  0  0  0  0  0  0  0  0  0  0  0
    1.4289    0.0000    0.0000 C   0  0  0  0  0  0  0  0  0  0  0  0
    1.4289    0.0000    0.0000 O   0  0  0  0  0  0  0  0  0  0  0  0
    0.7144    0.0000    0.0000 C   0  0  0  0  0  0  0  0  0  0  0  0
   -0.0001    0.0000    0.0000 C   0  0  0  0  0  0  0  0  0  0  0  0
   -0.0001    0.0000    0.0000 O   0  0  0  0  0  0  0  0  0  0  0  0
   -1.4289    0.0000    0.0000 C   0  0  0  0  0  0  0  0  0  0  0  0
   -2.1435    0.0000    0.0000 C   0  0  0  0  0  0  0  0  0  0  0  0
   -2.8578    0.0000    0.0000 C   0  0  0  0  0  0  0  0  0  0  0  0
   -3.5723    0.0000    0.0000 O   0  0  0  0  0  0  0  0  0  0  0  0
   -2.8578    0.0000    0.0000 C   0  0  0  0  0  0  0  0  0  0  0  0
   -3.5723    0.0000    0.0000 O   0  0  0  0  0  0  0  0  0  0  0  0
   -2.1435    0.0000    0.0000 C   0  0  0  0  0  0  0  0  0  0  0  0
   -1.4289    0.0000    0.0000 C   0  0  0  0  0  0  0  0  0  0  0  0
   -2.1435    0.0000    0.0000 C   0  0  0  0  0  0  0  0  0  0  0  0
   -2.8578    0.0000    0.0000 O   0  0  0  0  0  0  0  0  0  0  0  0
   -2.1435    0.0000    0.0000 C   0  0  0  0  0  0  0  0  0  0  0  0
   -2.8578    0.0000    0.0000 O   0  0  0  0  0  0  0  0  0  0  0  0
   -1.4289    0.0000    0.0000 C   0  0  0  0  0  0  0  0  0  0  0  0
   -1.4289    0.0000    0.0000 O   0  0  0  0  0  0  0  0  0  0  0  0
    2.1434    0.0000    0.0000 C   0  0  0  0  0  0  0  0  0  0  0  0
    2.1434    0.0000    0.0000 O   0  0  0  0  0  0  0  0  0  0  0  0
    2.8578    0.0000    0.0000 C   0  0  0  0  0  0  0  0  0  0  0  0
    3.5723    0.0000    0.0000 O   0  0  0  0  0  0  0  0  0  0  0  0
    2.8578    0.0000    0.0000 C   0  0  0  0  0  0  0  0  0  0  0  0
    3.5723    0.0000    0.0000 O   0  0  0  0  0  0  0  0  0  0  0  0
  1  2  1  0      
  2  3  1  0      
  3  4  1  0      
  4  5  1  0      
  5  6  1  0      
  6  7  1  0      
  7  8  1  0      
  8  9  1  0      
  9 10  1  0      
 10 11  1  0      
 11 12  2  0      
 12 13  1  0      
 13 14  1  0      
 14 15  2  0      
 15 16  1  0      
 16 17  1  0      
 16 18  2  0      
 18 19  1  0      
 19 20  1  0      
 19 21  2  0      
 14 21  1  0      
 21 22  1  0      
 11 22  1  0      
 22 23  2  0      
 12 24  1  0      
 24 25  2  0      
 25 26  1  0      
 26 27  1  0      
 26 28  2  0      
 28 29  1  0      
 28 30  1  0      
 30 31  2  0      
 24 31  1  0      
  9 32  1  0      
 32 33  1  0      
 32 34  1  0      
 34 35  1  0      
 34 36  1  0      
  7 36  1  0      
 36 37  1  0      
  4 38  1  0      
 38 39  1  0      
 38 40  1  0      
 40 41  1  0      
 40 42  1  0      
  2 42  1  0      
 42 43  1  0      
M  END
>  <Bioactivity>
Rutin, a flavonol glycoside found in many plants including buckwheat; tobacco; forsythia; hydrangea; viola, etc., which possesses healthy effects for human.

>  <CAS>
153-18-4

>  <Col>
7

>  <Formula>
C27H30O16

>  <ID>
T0795

>  <Index>
386

>  <MOLENAME>
Rutin

>  <MolWt>
610.52

>  <Pathways>
Enzyme

>  <Plate>
PLATE 005

>  <QR code>
1151479860

>  <Receptor>
AKR

>  <Reference>
1. Navarro-Nunez L, et al. J Agric Food Chem, 2008, 56(9), 2970-2976.

>  <Row>
G

>  <SMILES>
CC1OC(OCC2OC(OC3=C(OC4=CC(O)=CC(O)=C4C3=O)C3=CC(O)=C(O)C=C3)C(O)C(O)C2O)C(O)C(O)C1O

>  <Target>
AKR

>  <Weight>
10.1mg

$$$$
Lab-1.sdf
  ChemDraw05232018482D

 23 24  0  0  0  0  0  0  0  0999 V2000
    1.7017    0.0000    0.0000 O   0  0  0  0  0  0  0  0  0  0  0  0
    0.8813    0.0000    0.0000 C   0  0  0  0  0  0  0  0  0  0  0  0
    0.3963    0.0000    0.0000 C   0  0  0  0  0  0  0  0  0  0  0  0
    0.6513    0.0000    0.0000 O   0  0  0  0  0  0  0  0  0  0  0  0
   -0.0162    0.0000    0.0000 C   0  0  0  0  0  0  0  0  0  0  0  0
    0.5359    0.0000    0.0000 O   0  0  0  0  0  0  0  0  0  0  0  0
   -0.5682    0.0000    0.0000 C   0  0  0  0  0  0  0  0  0  0  0  0
   -1.3752    0.0000    0.0000 O   0  0  0  0  0  0  0  0  0  0  0  0
   -0.6836    0.0000    0.0000 C   0  0  0  0  0  0  0  0  0  0  0  0
   -1.4682    0.0000    0.0000 O   0  0  0  0  0  0  0  0  0  0  0  0
   -0.4287    0.0000    0.0000 C   0  0  0  0  0  0  0  0  0  0  0  0
   -0.9136    0.0000    0.0000 O   0  0  0  0  0  0  0  0  0  0  0  0
   -0.5780    0.0000    0.0000 C   0  0  0  0  0  0  0  0  0  0  0  0
    0.2425    0.0000    0.0000 O   0  0  0  0  0  0  0  0  0  0  0  0
    0.5780    0.0000    0.0000 C   0  0  0  0  0  0  0  0  0  0  0  0
    1.3985    0.0000    0.0000 C   0  0  0  0  0  0  0  0  0  0  0  0
    1.8834    0.0000    0.0000 O   0  0  0  0  0  0  0  0  0  0  0  0
    0.0931    0.0000    0.0000 C   0  0  0  0  0  0  0  0  0  0  0  0
    0.4286    0.0000    0.0000 O   0  0  0  0  0  0  0  0  0  0  0  0
   -0.7274    0.0000    0.0000 C   0  0  0  0  0  0  0  0  0  0  0  0
   -1.2123    0.0000    0.0000 O   0  0  0  0  0  0  0  0  0  0  0  0
   -1.0630    0.0000    0.0000 C   0  0  0  0  0  0  0  0  0  0  0  0
   -1.8834    0.0000    0.0000 O   0  0  0  0  0  0  0  0  0  0  0  0
  1  2  1  0      
  2  3  1  0      
  3  4  1  0      
  4  5  1  0      
  5  6  1  0      
  5  7  1  0      
  7  8  1  0      
  5  9  1  0      
  9 10  1  0      
  9 11  1  0      
  3 11  1  0      
 11 12  1  0      
 12 13  1  0      
 13 14  1  0      
 14 15  1  0      
 15 16  1  0      
 16 17  1  0      
 15 18  1  0      
 18 19  1  0      
 18 20  1  0      
 20 21  1  0      
 20 22  1  0      
 13 22  1  0      
 22 23  1  0      
M  END
>  <Bioactivity>
Lactulose is a non-absortable sugar used in the treatment of constipation and hepatic encephalopathy. It generally begin working after eight to twelve hours but may take up to two days to improve cons
tipation.

>  <CAS>
4618-18-2

>  <Col>
8

>  <Formula>
C12H22O11

>  <ID>
T0799

>  <Index>
387

>  <MOLENAME>
Lactulose

>  <MolWt>
342.3

>  <Pathways>
Others

>  <Plate>
PLATE 005

>  <QR code>
1151479859

>  <Receptor>
¦Â-gal

>  <Reference>
1. Algieri F, et al. J Agric Food Chem. 2014 May 14; 62(19):4285-97. 

>  <Row>
G

>  <SMILES>
OCC1OC(O)(CO)C(O)C1OC1OC(CO)C(O)C(O)C1O

>  <Target>
Others

>  <Weight>
10.3mg

$$$$
Lab-1.sdf
  ChemDraw05232018482D

 18 20  0  0  0  0  0  0  0  0999 V2000
    1.4290    0.0000    0.0000 O   0  0  0  0  0  0  0  0  0  0  0  0
    1.4290    0.0000    0.0000 C   0  0  0  0  0  0  0  0  0  0  0  0
    2.1434    0.0000    0.0000 C   0  0  0  0  0  0  0  0  0  0  0  0
    2.1434    0.0000    0.0000 C   0  0  0  0  0  0  0  0  0  0  0  0
    1.4290    0.0000    0.0000 C   0  0  0  0  0  0  0  0  0  0  0  0
    0.7145    0.0000    0.0000 C   0  0  0  0  0  0  0  0  0  0  0  0
    0.7145    0.0000    0.0000 C   0  0  0  0  0  0  0  0  0  0  0  0
   -0.0000    0.0000    0.0000 C   0  0  0  0  0  0  0  0  0  0  0  0
   -0.0000    0.0000    0.0000 O   0  0  0  0  0  0  0  0  0  0  0  0
   -0.7145    0.0000    0.0000 C   0  0  0  0  0  0  0  0  0  0  0  0
   -0.7145    0.0000    0.0000 C   0  0  0  0  0  0  0  0  0  0  0  0
   -1.4289    0.0000    0.0000 C   0  0  0  0  0  0  0  0  0  0  0  0
   -2.1434    0.0000    0.0000 C   0  0  0  0  0  0  0  0  0  0  0  0
   -2.1434    0.0000    0.0000 C   0  0  0  0  0  0  0  0  0  0  0  0
   -1.4289    0.0000    0.0000 C   0  0  0  0  0  0  0  0  0  0  0  0
   -1.4289    0.0000    0.0000 O   0  0  0  0  0  0  0  0  0  0  0  0
   -0.0000    0.0000    0.0000 C   0  0  0  0  0  0  0  0  0  0  0  0
   -0.0000    0.0000    0.0000 O   0  0  0  0  0  0  0  0  0  0  0  0
  1  2  1  0      
  2  3  2  0      
  3  4  1  0      
  4  5  2  0      
  5  6  1  0      
  6  7  2  0      
  2  7  1  0      
  7  8  1  0      
  8  9  2  0      
  8 10  1  0      
 10 11  2  0      
 11 12  1  0      
 12 13  2  0      
 13 14  1  0      
 14 15  2  0      
 10 15  1  0      
 15 16  1  0      
 11 17  1  0      
  6 17  1  0      
 17 18  2  0      
M  END
>  <Bioactivity>
Dantron (INN), also known as chrysazin or 1,8-dihydroxyanthraquinone, is used in some countries as a stimulant laxative. Withdrawn from the Canadian, US, and UK markets in 1998 due to genotoxicity.  

>  <CAS>
117-10-2

>  <Col>
9

>  <Formula>
C14H8O4

>  <ID>
T0800

>  <Index>
388

>  <MOLENAME>
Antrapurol

>  <MolWt>
240.22

>  <Pathways>
PI3K/Akt/mTOR Signaling

>  <Plate>
PLATE 005

>  <QR code>
1151479858

>  <Receptor>
AMPK

>  <Reference>
1. Zhou R, et al. Acta Pharmacol Sin. 2013 Aug; 34(8):1061-9. 

>  <Row>
G

>  <SMILES>
OC1=CC=CC2=C1C(=O)C1=C(C=CC=C1O)C2=O

>  <Target>
AMPK activator

>  <Weight>
10.3mg

$$$$
Lab-1.sdf
  ChemDraw05232018482D

122132  0  0  0  0  0  0  0  0999 V2000
   -6.7875    0.0000    0.0000 O   0  0  0  0  0  0  0  0  0  0  0  0
   -6.7875    0.0000    0.0000 C   0  0  0  0  0  0  0  0  0  0  0  0
   -6.0730    0.0000    0.0000 C   0  0  0  0  0  0  0  0  0  0  0  0
   -6.0730    0.0000    0.0000 C   0  0  0  0  0  0  0  0  0  0  0  0
   -6.7875    0.0000    0.0000 C   0  0  0  0  0  0  0  0  0  0  0  0
   -7.5020    0.0000    0.0000 C   0  0  0  0  0  0  0  0  0  0  0  0
   -8.2164    0.0000    0.0000 O   0  0  0  0  0  0  0  0  0  0  0  0
   -7.5020    0.0000    0.0000 C   0  0  0  0  0  0  0  0  0  0  0  0
   -8.2164    0.0000    0.0000 O   0  0  0  0  0  0  0  0  0  0  0  0
   -5.3586    0.0000    0.0000 C   0  0  0  0  0  0  0  0  0  0  0  0
   -5.3586    0.0000    0.0000 O   0  0  0  0  0  0  0  0  0  0  0  0
   -4.6441    0.0000    0.0000 O   0  0  0  0  0  0  0  0  0  0  0  0
   -3.9296    0.0000    0.0000 C   0  0  0  0  0  0  0  0  0  0  0  0
   -3.2151    0.0000    0.0000 C   0  0  0  0  0  0  0  0  0  0  0  0
   -2.5007    0.0000    0.0000 C   0  0  0  0  0  0  0  0  0  0  0  0
   -2.5007    0.0000    0.0000 C   0  0  0  0  0  0  0  0  0  0  0  0
   -3.2151    0.0000    0.0000 C   0  0  0  0  0  0  0  0  0  0  0  0
   -3.2151    0.0000    0.0000 O   0  0  0  0  0  0  0  0  0  0  0  0
   -3.9296    0.0000    0.0000 C   0  0  0  0  0  0  0  0  0  0  0  0
   -4.6441    0.0000    0.0000 O   0  0  0  0  0  0  0  0  0  0  0  0
   -1.7862    0.0000    0.0000 C   0  0  0  0  0  0  0  0  0  0  0  0
   -1.0717    0.0000    0.0000 O   0  0  0  0  0  0  0  0  0  0  0  0
   -1.7862    0.0000    0.0000 O   0  0  0  0  0  0  0  0  0  0  0  0
   -1.0717    0.0000    0.0000 C   0  0  0  0  0  0  0  0  0  0  0  0
   -0.3573    0.0000    0.0000 C   0  0  0  0  0  0  0  0  0  0  0  0
   -0.3573    0.0000    0.0000 O   0  0  0  0  0  0  0  0  0  0  0  0
    0.3572    0.0000    0.0000 C   0  0  0  0  0  0  0  0  0  0  0  0
    0.3572    0.0000    0.0000 O   0  0  0  0  0  0  0  0  0  0  0  0
   -0.3573    0.0000    0.0000 C   0  0  0  0  0  0  0  0  0  0  0  0
   -1.0717    0.0000    0.0000 O   0  0  0  0  0  0  0  0  0  0  0  0
   -0.3573    0.0000    0.0000 C   0  0  0  0  0  0  0  0  0  0  0  0
    0.3572    0.0000    0.0000 C   0  0  0  0  0  0  0  0  0  0  0  0
    0.3572    0.0000    0.0000 C   0  0  0  0  0  0  0  0  0  0  0  0
    1.0717    0.0000    0.0000 O   0  0  0  0  0  0  0  0  0  0  0  0
   -0.3573    0.0000    0.0000 C   0  0  0  0  0  0  0  0  0  0  0  0
   -0.3573    0.0000    0.0000 O   0  0  0  0  0  0  0  0  0  0  0  0
   -1.0717    0.0000    0.0000 C   0  0  0  0  0  0  0  0  0  0  0  0
   -1.7862    0.0000    0.0000 O   0  0  0  0  0  0  0  0  0  0  0  0
   -1.7862    0.0000    0.0000 C   0  0  0  0  0  0  0  0  0  0  0  0
   -1.0717    0.0000    0.0000 O   0  0  0  0  0  0  0  0  0  0  0  0
   -2.5007    0.0000    0.0000 C   0  0  0  0  0  0  0  0  0  0  0  0
   -2.5007    0.0000    0.0000 C   0  0  0  0  0  0  0  0  0  0  0  0
   -3.2151    0.0000    0.0000 C   0  0  0  0  0  0  0  0  0  0  0  0
   -3.2151    0.0000    0.0000 O   0  0  0  0  0  0  0  0  0  0  0  0
   -3.9296    0.0000    0.0000 C   0  0  0  0  0  0  0  0  0  0  0  0
   -4.6441    0.0000    0.0000 O   0  0  0  0  0  0  0  0  0  0  0  0
   -3.9296    0.0000    0.0000 C   0  0  0  0  0  0  0  0  0  0  0  0
   -4.6441    0.0000    0.0000 O   0  0  0  0  0  0  0  0  0  0  0  0
   -3.2151    0.0000    0.0000 C   0  0  0  0  0  0  0  0  0  0  0  0
   -1.0717    0.0000    0.0000 C   0  0  0  0  0  0  0  0  0  0  0  0
    1.0717    0.0000    0.0000 C   0  0  0  0  0  0  0  0  0  0  0  0
    1.7862    0.0000    0.0000 O   0  0  0  0  0  0  0  0  0  0  0  0
    1.7862    0.0000    0.0000 C   0  0  0  0  0  0  0  0  0  0  0  0
    1.0717    0.0000    0.0000 O   0  0  0  0  0  0  0  0  0  0  0  0
    2.5006    0.0000    0.0000 C   0  0  0  0  0  0  0  0  0  0  0  0
    2.5006    0.0000    0.0000 C   0  0  0  0  0  0  0  0  0  0  0  0
    3.2151    0.0000    0.0000 C   0  0  0  0  0  0  0  0  0  0  0  0
    3.2151    0.0000    0.0000 O   0  0  0  0  0  0  0  0  0  0  0  0
    3.9296    0.0000    0.0000 C   0  0  0  0  0  0  0  0  0  0  0  0
    4.6440    0.0000    0.0000 O   0  0  0  0  0  0  0  0  0  0  0  0
    3.9296    0.0000    0.0000 C   0  0  0  0  0  0  0  0  0  0  0  0
    4.6440    0.0000    0.0000 O   0  0  0  0  0  0  0  0  0  0  0  0
    5.3585    0.0000    0.0000 C   0  0  0  0  0  0  0  0  0  0  0  0
    5.3585    0.0000    0.0000 O   0  0  0  0  0  0  0  0  0  0  0  0
    6.0730    0.0000    0.0000 C   0  0  0  0  0  0  0  0  0  0  0  0
    6.0730    0.0000    0.0000 C   0  0  0  0  0  0  0  0  0  0  0  0
    6.7875    0.0000    0.0000 C   0  0  0  0  0  0  0  0  0  0  0  0
    6.7875    0.0000    0.0000 O   0  0  0  0  0  0  0  0  0  0  0  0
    7.5019    0.0000    0.0000 C   0  0  0  0  0  0  0  0  0  0  0  0
    8.2164    0.0000    0.0000 O   0  0  0  0  0  0  0  0  0  0  0  0
    7.5019    0.0000    0.0000 C   0  0  0  0  0  0  0  0  0  0  0  0
    8.2164    0.0000    0.0000 O   0  0  0  0  0  0  0  0  0  0  0  0
    6.7875    0.0000    0.0000 C   0  0  0  0  0  0  0  0  0  0  0  0
    3.2151    0.0000    0.0000 C   0  0  0  0  0  0  0  0  0  0  0  0
    1.0717    0.0000    0.0000 C   0  0  0  0  0  0  0  0  0  0  0  0
    1.7862    0.0000    0.0000 O   0  0  0  0  0  0  0  0  0  0  0  0
    2.5006    0.0000    0.0000 C   0  0  0  0  0  0  0  0  0  0  0  0
    2.5006    0.0000    0.0000 O   0  0  0  0  0  0  0  0  0  0  0  0
    3.2151    0.0000    0.0000 C   0  0  0  0  0  0  0  0  0  0  0  0
    3.9296    0.0000    0.0000 C   0  0  0  0  0  0  0  0  0  0  0  0
    4.6440    0.0000    0.0000 C   0  0  0  0  0  0  0  0  0  0  0  0
    5.3585    0.0000    0.0000 O   0  0  0  0  0  0  0  0  0  0  0  0
    4.6440    0.0000    0.0000 C   0  0  0  0  0  0  0  0  0  0  0  0
    5.3585    0.0000    0.0000 O   0  0  0  0  0  0  0  0  0  0  0  0
    3.9296    0.0000    0.0000 C   0  0  0  0  0  0  0  0  0  0  0  0
    3.9296    0.0000    0.0000 O   0  0  0  0  0  0  0  0  0  0  0  0
    4.6440    0.0000    0.0000 C   0  0  0  0  0  0  0  0  0  0  0  0
    5.3585    0.0000    0.0000 O   0  0  0  0  0  0  0  0  0  0  0  0
    4.6440    0.0000    0.0000 C   0  0  0  0  0  0  0  0  0  0  0  0
    3.9296    0.0000    0.0000 C   0  0  0  0  0  0  0  0  0  0  0  0
    3.9296    0.0000    0.0000 C   0  0  0  0  0  0  0  0  0  0  0  0
    3.2151    0.0000    0.0000 O   0  0  0  0  0  0  0  0  0  0  0  0
    4.6440    0.0000    0.0000 C   0  0  0  0  0  0  0  0  0  0  0  0
    4.6440    0.0000    0.0000 O   0  0  0  0  0  0  0  0  0  0  0  0
    5.3585    0.0000    0.0000 C   0  0  0  0  0  0  0  0  0  0  0  0
    6.0730    0.0000    0.0000 O   0  0  0  0  0  0  0  0  0  0  0  0
    5.3585    0.0000    0.0000 C   0  0  0  0  0  0  0  0  0  0  0  0
    3.2151    0.0000    0.0000 C   0  0  0  0  0  0  0  0  0  0  0  0
    0.3572    0.0000    0.0000 C   0  0  0  0  0  0  0  0  0  0  0  0
    0.3572    0.0000    0.0000 O   0  0  0  0  0  0  0  0  0  0  0  0
   -0.3573    0.0000    0.0000 C   0  0  0  0  0  0  0  0  0  0  0  0
   -1.0717    0.0000    0.0000 O   0  0  0  0  0  0  0  0  0  0  0  0
   -0.3573    0.0000    0.0000 C   0  0  0  0  0  0  0  0  0  0  0  0
    0.3572    0.0000    0.0000 C   0  0  0  0  0  0  0  0  0  0  0  0
    0.3572    0.0000    0.0000 C   0  0  0  0  0  0  0  0  0  0  0  0
    1.0717    0.0000    0.0000 O   0  0  0  0  0  0  0  0  0  0  0  0
   -0.3573    0.0000    0.0000 C   0  0  0  0  0  0  0  0  0  0  0  0
   -0.3573    0.0000    0.0000 O   0  0  0  0  0  0  0  0  0  0  0  0
   -1.0717    0.0000    0.0000 C   0  0  0  0  0  0  0  0  0  0  0  0
   -1.7862    0.0000    0.0000 O   0  0  0  0  0  0  0  0  0  0  0  0
   -2.5007    0.0000    0.0000 C   0  0  0  0  0  0  0  0  0  0  0  0
   -2.5007    0.0000    0.0000 O   0  0  0  0  0  0  0  0  0  0  0  0
   -3.2151    0.0000    0.0000 C   0  0  0  0  0  0  0  0  0  0  0  0
   -3.9296    0.0000    0.0000 C   0  0  0  0  0  0  0  0  0  0  0  0
   -4.6441    0.0000    0.0000 C   0  0  0  0  0  0  0  0  0  0  0  0
   -5.3586    0.0000    0.0000 O   0  0  0  0  0  0  0  0  0  0  0  0
   -4.6441    0.0000    0.0000 C   0  0  0  0  0  0  0  0  0  0  0  0
   -5.3586    0.0000    0.0000 O   0  0  0  0  0  0  0  0  0  0  0  0
   -3.9296    0.0000    0.0000 C   0  0  0  0  0  0  0  0  0  0  0  0
   -3.9296    0.0000    0.0000 O   0  0  0  0  0  0  0  0  0  0  0  0
   -3.2151    0.0000    0.0000 C   0  0  0  0  0  0  0  0  0  0  0  0
   -1.0717    0.0000    0.0000 C   0  0  0  0  0  0  0  0  0  0  0  0
  1  2  1  0      
  2  3  2  0      
  3  4  1  0      
  4  5  2  0      
  5  6  1  0      
  6  7  1  0      
  6  8  2  0      
  2  8  1  0      
  8  9  1  0      
  4 10  1  0      
 10 11  2  0      
 10 12  1  0      
 12 13  1  0      
 13 14  2  0      
 14 15  1  0      
 15 16  2  0      
 16 17  1  0      
 17 18  1  0      
 17 19  2  0      
 13 19  1  0      
 19 20  1  0      
 15 21  1  0      
 21 22  2  0      
 21 23  1  0      
 23 24  1  0      
 24 25  1  0      
 25 26  1  0      
 26 27  1  0      
 27 28  1  0      
 28 29  1  0      
 29 30  2  0      
 29 31  1  0      
 31 32  2  0      
 32 33  1  0      
 33 34  1  0      
 33 35  2  0      
 35 36  1  0      
 35 37  1  0      
 37 38  1  0      
 38 39  1  0      
 39 40  2  0      
 39 41  1  0      
 41 42  2  0      
 42 43  1  0      
 43 44  1  0      
 43 45  2  0      
 45 46  1  0      
 45 47  1  0      
 47 48  1  0      
 47 49  2  0      
 41 49  1  0      
 37 50  2  0      
 31 50  1  0      
 27 51  1  0      
 51 52  1  0      
 52 53  1  0      
 53 54  2  0      
 53 55  1  0      
 55 56  2  0      
 56 57  1  0      
 57 58  1  0      
 57 59  2  0      
 59 60  1  0      
 59 61  1  0      
 61 62  1  0      
 62 63  1  0      
 63 64  2  0      
 63 65  1  0      
 65 66  2  0      
 66 67  1  0      
 67 68  1  0      
 67 69  2  0      
 69 70  1  0      
 69 71  1  0      
 71 72  1  0      
 71 73  2  0      
 65 73  1  0      
 61 74  2  0      
 55 74  1  0      
 51 75  1  0      
 75 76  1  0      
 76 77  1  0      
 77 78  2  0      
 77 79  1  0      
 79 80  2  0      
 80 81  1  0      
 81 82  1  0      
 81 83  2  0      
 83 84  1  0      
 83 85  1  0      
 85 86  1  0      
 86 87  1  0      
 87 88  2  0      
 87 89  1  0      
 89 90  2  0      
 90 91  1  0      
 91 92  1  0      
 91 93  2  0      
 93 94  1  0      
 93 95  1  0      
 95 96  1  0      
 95 97  2  0      
 89 97  1  0      
 85 98  2  0      
 79 98  1  0      
 75 99  1  0      
 25 99  1  0      
 99100  1  0      
100101  1  0      
101102  2  0      
101103  1  0      
103104  2  0      
104105  1  0      
105106  1  0      
105107  2  0      
107108  1  0      
107109  1  0      
109110  1  0      
110111  1  0      
111112  2  0      
111113  1  0      
113114  2  0      
114115  1  0      
115116  1  0      
115117  2  0      
117118  1  0      
117119  1  0      
119120  1  0      
119121  2  0      
113121  1  0      
109122  2  0      
103122  1  0      
M  END
>  <Bioactivity>
Polyphenolic compounds with molecular weights of around 500-3000 daltons and containing enough hydroxyl groups (1-2 per 100 MW) for effective cross linking of other compounds (ASTRINGENTS). The two ma
in types are HYDROLYZABLE TANNINS and CONDENSED TANNINS. Historically, the term has applied to many compounds and plant extracts able to render skin COLLAGEN impervious to degradation. The word tannin
 derives from the Celtic word for OAK TREE which was used for leather processing. 

>  <CAS>
1401-55-4

>  <Col>
10

>  <Formula>
C76H52O46

>  <ID>
T0801

>  <Index>
389

>  <MOLENAME>
Glycerite

>  <MolWt>
1701.2

>  <Pathways>
Others

>  <Plate>
PLATE 005

>  <QR code>
1151479857

>  <Receptor>
Others

>  <Reference>
1. JENKINS JT. Am J Surg. 1947 Oct;74(4):428-30. 

>  <Row>
G

>  <SMILES>
OC1=CC(=CC(O)=C1O)C(=O)OC1=CC(=CC(O)=C1O)C(=O)OCC1OC(OC(=O)C2=CC(O)=C(O)C(OC(=O)C3=CC(O)=C(O)C(O)=C3)=C2)C(OC(=O)C2=CC(O)=C(O)C(OC(=O)C3=CC(O)=C(O)C(O)=C3)=C2)C(OC(=O)C2=CC(O)=C(O)C(OC(=O)C3=CC(O)=C(O
)C(O)=C3)=C2)C1OC(=O)C1=CC(O)=C(O)C(OC(=O)C2=CC(O)=C(O)C(O)=C2)=C1

>  <Target>
Others

>  <Weight>
10.2mg

$$$$
Lab-1.sdf
  ChemDraw05232018482D

 17 16  0  0  0  0  0  0  0  0999 V2000
   -2.8398    0.0000    0.0000 H   0  3  0  0  0  0  0  0  0  0  0  0
   -3.6648    0.0000    0.0000 Cl  0  5  0  0  0  0  0  0  0  0  0  0
   -0.3344    0.0000    0.0000 C   0  0  0  0  0  0  0  0  0  0  0  0
    0.3802    0.0000    0.0000 C   0  0  0  0  0  0  0  0  0  0  0  0
    0.3802    0.0000    0.0000 C   0  0  0  0  0  0  0  0  0  0  0  0
    1.0477    0.0000    0.0000 C   0  0  0  0  0  0  0  0  0  0  0  0
    1.8323    0.0000    0.0000 C   0  0  0  0  0  0  0  0  0  0  0  0
    2.4454    0.0000    0.0000 C   0  0  0  0  0  0  0  0  0  0  0  0
    3.2523    0.0000    0.0000 C   0  0  0  0  0  0  0  0  0  0  0  0
    3.6648    0.0000    0.0000 N   0  0  0  0  0  0  0  0  0  0  0  0
    3.1128    0.0000    0.0000 C   0  0  0  0  0  0  0  0  0  0  0  0
    2.3591    0.0000    0.0000 N   0  0  0  0  0  0  0  0  0  0  0  0
    1.6447    0.0000    0.0000 C   0  0  0  0  0  0  0  0  0  0  0  0
    0.7927    0.0000    0.0000 C   0  0  0  0  0  0  0  0  0  0  0  0
   -0.0324    0.0000    0.0000 O   0  0  0  0  0  0  0  0  0  0  0  0
   -0.2873    0.0000    0.0000 C   0  0  0  0  0  0  0  0  0  0  0  0
   -1.0719    0.0000    0.0000 O   0  0  0  0  0  0  0  0  0  0  0  0
  3  4  1  0      
  4  5  1  0      
  5  6  1  0      
  6  7  1  0      
  7  8  1  0      
  8  9  2  0      
  9 10  1  0      
 10 11  2  0      
 11 12  1  0      
  8 12  1  0      
 12 13  1  0      
  6 14  1  0      
 14 15  1  0      
 15 16  1  0      
  5 16  1  0      
 16 17  2  0      
M  CHG  2   1   1   2  -1
M  END
>  <Bioactivity>
Pilocarpine hydrochloride is a nonselective muscarinic acetylcholine receptor agonist used to produce an experimental model of epilepsy.

>  <CAS>
54-71-7

>  <Col>
11

>  <Formula>
C11H16N2O2?HCl

>  <ID>
T0804

>  <Index>
390

>  <MOLENAME>
(+)-Pilocarpine hydrochloride

>  <MolWt>
244.72

>  <Pathways>
Neuroscience

>  <Plate>
PLATE 005

>  <QR code>
1151479856

>  <Receptor>
Muscarinic AChR

>  <Reference>
1. Maslanski JA, et al. Neurosci Lett, 1994, 168(1-2), 225-228.

>  <Row>
G

>  <SMILES>
[H+].[Cl-].CCC1C(CC2=CN=CN2C)COC1=O

>  <Target>
AChR antagonist

>  <Weight>
10.2mg

$$$$
Lab-1.sdf
  ChemDraw05232018482D

 25 28  0  0  0  0  0  0  0  0999 V2000
    1.4289    0.0000    0.0000 O   0  0  0  0  0  0  0  0  0  0  0  0
    1.4289    0.0000    0.0000 C   0  0  0  0  0  0  0  0  0  0  0  0
    0.7144    0.0000    0.0000 C   0  0  0  0  0  0  0  0  0  0  0  0
   -0.0001    0.0000    0.0000 C   0  0  0  0  0  0  0  0  0  0  0  0
   -0.7145    0.0000    0.0000 C   0  0  0  0  0  0  0  0  0  0  0  0
   -1.4289    0.0000    0.0000 C   0  0  0  0  0  0  0  0  0  0  0  0
   -1.4289    0.0000    0.0000 O   0  0  0  0  0  0  0  0  0  0  0  0
   -2.1435    0.0000    0.0000 C   0  0  0  0  0  0  0  0  0  0  0  0
   -2.8578    0.0000    0.0000 C   0  0  0  0  0  0  0  0  0  0  0  0
   -3.5723    0.0000    0.0000 C   0  0  0  0  0  0  0  0  0  0  0  0
   -3.5723    0.0000    0.0000 C   0  0  0  0  0  0  0  0  0  0  0  0
   -2.8578    0.0000    0.0000 C   0  0  0  0  0  0  0  0  0  0  0  0
   -2.1435    0.0000    0.0000 C   0  0  0  0  0  0  0  0  0  0  0  0
   -1.4289    0.0000    0.0000 O   0  0  0  0  0  0  0  0  0  0  0  0
   -0.7145    0.0000    0.0000 C   0  0  0  0  0  0  0  0  0  0  0  0
   -0.0001    0.0000    0.0000 O   0  0  0  0  0  0  0  0  0  0  0  0
    0.7144    0.0000    0.0000 C   0  0  0  0  0  0  0  0  0  0  0  0
    0.3790    0.0000    0.0000 O   0  0  0  0  0  0  0  0  0  0  0  0
    1.4289    0.0000    0.0000 O   0  0  0  0  0  0  0  0  0  0  0  0
    2.1434    0.0000    0.0000 C   0  0  0  0  0  0  0  0  0  0  0  0
    2.8578    0.0000    0.0000 C   0  0  0  0  0  0  0  0  0  0  0  0
    3.5723    0.0000    0.0000 C   0  0  0  0  0  0  0  0  0  0  0  0
    3.5723    0.0000    0.0000 C   0  0  0  0  0  0  0  0  0  0  0  0
    2.8578    0.0000    0.0000 C   0  0  0  0  0  0  0  0  0  0  0  0
    2.1434    0.0000    0.0000 C   0  0  0  0  0  0  0  0  0  0  0  0
  1  2  1  0      
  2  3  2  0      
  3  4  1  0      
  4  5  1  0      
  5  6  2  0      
  6  7  1  0      
  6  8  1  0      
  8  9  2  0      
  9 10  1  0      
 10 11  2  0      
 11 12  1  0      
 12 13  2  0      
  8 13  1  0      
 13 14  1  0      
 14 15  1  0      
  5 15  1  0      
 15 16  2  0      
  3 17  1  0      
 17 18  2  0      
 17 19  1  0      
 19 20  1  0      
 20 21  2  0      
 21 22  1  0      
 22 23  2  0      
 23 24  1  0      
 24 25  2  0      
  2 25  1  0      
 20 25  1  0      
M  END
>  <Bioactivity>
An oral anticoagulant that interferes with the metabolism of vitamin K. It is also used in biochemical experiments as an inhibitor of reductases. 

>  <CAS>
66-76-2

>  <Col>
2

>  <Formula>
C19H12O6

>  <ID>
T0809

>  <Index>
391

>  <MOLENAME>
Dicumarol

>  <MolWt>
336.29

>  <Pathways>
Metabolism

>  <Plate>
PLATE 005

>  <QR code>
1151479844

>  <Receptor>
NAD(P)H DH1; QOR; VKOR

>  <Reference>
1. Jaiswal AK. Arch Biochem Biophys. 2000, 375(1):62-8.

>  <Row>
H

>  <SMILES>
OC1=C(CC2=C(O)C3=CC=CC=C3OC2=O)C(=O)OC2=CC=CC=C12

>  <Target>
Dehydrogenase inhibitor; QOR inhibitor ; VKOR inhibitor

>  <Weight>
10.3mg

$$$$
Lab-1.sdf
  ChemDraw05232018482D

 21 23  0  0  0  0  0  0  0  0999 V2000
   -1.0717    0.0000    0.0000 O   0  0  0  0  0  0  0  0  0  0  0  0
   -0.3572    0.0000    0.0000 C   0  0  0  0  0  0  0  0  0  0  0  0
    0.3572    0.0000    0.0000 C   0  0  0  0  0  0  0  0  0  0  0  0
    1.0717    0.0000    0.0000 C   0  0  0  0  0  0  0  0  0  0  0  0
    1.7862    0.0000    0.0000 C   0  0  0  0  0  0  0  0  0  0  0  0
    1.7862    0.0000    0.0000 O   0  0  0  0  0  0  0  0  0  0  0  0
    2.5007    0.0000    0.0000 C   0  0  0  0  0  0  0  0  0  0  0  0
    2.5007    0.0000    0.0000 C   0  0  0  0  0  0  0  0  0  0  0  0
    3.2151    0.0000    0.0000 O   0  0  0  0  0  0  0  0  0  0  0  0
    1.7862    0.0000    0.0000 C   0  0  0  0  0  0  0  0  0  0  0  0
    1.0717    0.0000    0.0000 C   0  0  0  0  0  0  0  0  0  0  0  0
    0.3572    0.0000    0.0000 O   0  0  0  0  0  0  0  0  0  0  0  0
   -0.3572    0.0000    0.0000 C   0  0  0  0  0  0  0  0  0  0  0  0
   -1.0717    0.0000    0.0000 C   0  0  0  0  0  0  0  0  0  0  0  0
   -1.0717    0.0000    0.0000 C   0  0  0  0  0  0  0  0  0  0  0  0
   -1.7862    0.0000    0.0000 C   0  0  0  0  0  0  0  0  0  0  0  0
   -1.7862    0.0000    0.0000 O   0  0  0  0  0  0  0  0  0  0  0  0
   -2.5006    0.0000    0.0000 C   0  0  0  0  0  0  0  0  0  0  0  0
   -3.2151    0.0000    0.0000 O   0  0  0  0  0  0  0  0  0  0  0  0
   -2.5006    0.0000    0.0000 C   0  0  0  0  0  0  0  0  0  0  0  0
   -1.7862    0.0000    0.0000 C   0  0  0  0  0  0  0  0  0  0  0  0
  1  2  1  0      
  2  3  1  0      
  3  4  1  0      
  4  5  2  0      
  5  6  1  0      
  5  7  1  0      
  7  8  2  0      
  8  9  1  0      
  8 10  1  0      
 10 11  2  0      
  4 11  1  0      
 11 12  1  0      
 12 13  1  0      
  2 13  1  0      
 13 14  1  0      
 14 15  2  0      
 15 16  1  0      
 16 17  1  0      
 16 18  2  0      
 18 19  1  0      
 18 20  1  0      
 20 21  2  0      
 14 21  1  0      
M  END
>  <Bioactivity>
Catechin((+)-Catechin; D-Catechin) is a flavan-3-ol, a type of natural phenol and antioxidant. 

>  <CAS>
154-23-4

>  <Col>
3

>  <Formula>
C15H14O6

>  <ID>
T0822

>  <Index>
392

>  <MOLENAME>
Cianidanol

>  <MolWt>
290.27

>  <Pathways>
Immunology/Inflammation

>  <Plate>
PLATE 005

>  <QR code>
1151479845

>  <Receptor>
Antioxidant

>  <Reference>
1. Bhujbal NN, et al. Carbohydr Res. 2009 Apr 21;344(6):734-8. 

>  <Row>
H

>  <SMILES>
OC1CC2=C(O)C=C(O)C=C2OC1C1=CC(O)=C(O)C=C1

>  <Target>
ROS inhibitor

>  <Weight>
10.3mg

$$$$
Lab-1.sdf
  ChemDraw05232018482D

 59 62  0  0  0  0  0  0  0  0999 V2000
   -2.1882    0.0000    0.0000 C   0  0  0  0  0  0  0  0  0  0  0  0
   -1.4737    0.0000    0.0000 O   0  0  0  0  0  0  0  0  0  0  0  0
   -0.7592    0.0000    0.0000 C   0  0  0  0  0  0  0  0  0  0  0  0
   -1.4737    0.0000    0.0000 C   0  0  0  0  0  0  0  0  0  0  0  0
   -2.2942    0.0000    0.0000 O   0  0  0  0  0  0  0  0  0  0  0  0
   -1.4737    0.0000    0.0000 C   0  0  0  0  0  0  0  0  0  0  0  0
   -0.7592    0.0000    0.0000 C   0  0  0  0  0  0  0  0  0  0  0  0
   -0.7592    0.0000    0.0000 O   0  0  0  0  0  0  0  0  0  0  0  0
   -0.0448    0.0000    0.0000 O   0  0  0  0  0  0  0  0  0  0  0  0
    0.6697    0.0000    0.0000 C   0  0  0  0  0  0  0  0  0  0  0  0
    0.6697    0.0000    0.0000 C   0  0  0  0  0  0  0  0  0  0  0  0
    1.3842    0.0000    0.0000 C   0  0  0  0  0  0  0  0  0  0  0  0
    2.0987    0.0000    0.0000 C   0  0  0  0  0  0  0  0  0  0  0  0
    2.8131    0.0000    0.0000 C   0  0  0  0  0  0  0  0  0  0  0  0
    2.8131    0.0000    0.0000 C   0  0  0  0  0  0  0  0  0  0  0  0
    2.0987    0.0000    0.0000 C   0  0  0  0  0  0  0  0  0  0  0  0
    2.0987    0.0000    0.0000 C   0  0  0  0  0  0  0  0  0  0  0  0
    2.8131    0.0000    0.0000 O   0  0  0  0  0  0  0  0  0  0  0  0
    2.8131    0.0000    0.0000 C   0  0  0  0  0  0  0  0  0  0  0  0
    2.0987    0.0000    0.0000 C   0  0  0  0  0  0  0  0  0  0  0  0
    2.0987    0.0000    0.0000 C   0  0  0  0  0  0  0  0  0  0  0  0
    2.8131    0.0000    0.0000 C   0  0  0  0  0  0  0  0  0  0  0  0
    3.5276    0.0000    0.0000 C   0  0  0  0  0  0  0  0  0  0  0  0
    4.2421    0.0000    0.0000 C   0  0  0  0  0  0  0  0  0  0  0  0
    3.5276    0.0000    0.0000 O   0  0  0  0  0  0  0  0  0  0  0  0
    2.8131    0.0000    0.0000 N   0  0  0  0  0  0  0  0  0  0  0  0
    3.5276    0.0000    0.0000 C   0  0  0  0  0  0  0  0  0  0  0  0
    2.0987    0.0000    0.0000 C   0  0  0  0  0  0  0  0  0  0  0  0
    1.3842    0.0000    0.0000 C   0  0  0  0  0  0  0  0  0  0  0  0
    1.3842    0.0000    0.0000 C   0  0  0  0  0  0  0  0  0  0  0  0
    0.6697    0.0000    0.0000 C   0  0  0  0  0  0  0  0  0  0  0  0
   -0.0448    0.0000    0.0000 C   0  0  0  0  0  0  0  0  0  0  0  0
   -0.0448    0.0000    0.0000 C   0  0  0  0  0  0  0  0  0  0  0  0
   -0.7592    0.0000    0.0000 C   0  0  0  0  0  0  0  0  0  0  0  0
   -0.7592    0.0000    0.0000 O   0  0  0  0  0  0  0  0  0  0  0  0
   -0.7592    0.0000    0.0000 C   0  0  0  0  0  0  0  0  0  0  0  0
   -1.5662    0.0000    0.0000 O   0  0  0  0  0  0  0  0  0  0  0  0
   -1.8211    0.0000    0.0000 C   0  0  0  0  0  0  0  0  0  0  0  0
   -1.2691    0.0000    0.0000 O   0  0  0  0  0  0  0  0  0  0  0  0
   -1.5240    0.0000    0.0000 C   0  0  0  0  0  0  0  0  0  0  0  0
   -0.9720    0.0000    0.0000 C   0  0  0  0  0  0  0  0  0  0  0  0
   -2.3310    0.0000    0.0000 C   0  0  0  0  0  0  0  0  0  0  0  0
   -2.5860    0.0000    0.0000 O   0  0  0  0  0  0  0  0  0  0  0  0
   -2.0339    0.0000    0.0000 C   0  0  0  0  0  0  0  0  0  0  0  0
   -2.2889    0.0000    0.0000 C   0  0  0  0  0  0  0  0  0  0  0  0
   -1.7368    0.0000    0.0000 C   0  0  0  0  0  0  0  0  0  0  0  0
   -2.4365    0.0000    0.0000 C   0  0  0  0  0  0  0  0  0  0  0  0
   -1.4278    0.0000    0.0000 O   0  0  0  0  0  0  0  0  0  0  0  0
   -0.9299    0.0000    0.0000 C   0  0  0  0  0  0  0  0  0  0  0  0
   -0.3778    0.0000    0.0000 O   0  0  0  0  0  0  0  0  0  0  0  0
   -0.6749    0.0000    0.0000 C   0  0  0  0  0  0  0  0  0  0  0  0
    0.1321    0.0000    0.0000 C   0  0  0  0  0  0  0  0  0  0  0  0
   -1.2269    0.0000    0.0000 O   0  0  0  0  0  0  0  0  0  0  0  0
   -2.8830    0.0000    0.0000 C   0  0  0  0  0  0  0  0  0  0  0  0
   -2.6281    0.0000    0.0000 C   0  0  0  0  0  0  0  0  0  0  0  0
   -3.1801    0.0000    0.0000 O   0  0  0  0  0  0  0  0  0  0  0  0
   -3.6900    0.0000    0.0000 N   0  0  0  0  0  0  0  0  0  0  0  0
   -4.2421    0.0000    0.0000 C   0  0  0  0  0  0  0  0  0  0  0  0
   -3.9450    0.0000    0.0000 C   0  0  0  0  0  0  0  0  0  0  0  0
  1  2  1  0      
  2  3  1  0      
  3  4  1  0      
  4  5  1  0      
  4  6  1  0      
  6  7  1  0      
  7  8  2  0      
  7  9  1  0      
  9 10  1  0      
 10 11  1  0      
 10 12  1  0      
 13 12  1  4      
 13 14  2  0      
 15 14  1  4      
 15 16  2  0      
 16 17  1  0      
 17 18  1  0      
 18 19  1  0      
 19 20  1  0      
 20 21  1  0      
 21 22  1  0      
 22 23  1  0      
 23 24  1  0      
 23 25  1  0      
 19 25  1  0      
 22 26  1  0      
 26 27  1  0      
 26 28  1  0      
 17 29  1  0      
 29 30  1  0      
 29 31  1  0      
 31 32  1  0      
 32 33  1  0      
 33 34  1  0      
 34 35  2  0      
 32 36  1  0      
  3 36  1  0      
 36 37  1  0      
 37 38  1  0      
 38 39  1  0      
 39 40  1  0      
 40 41  1  0      
 40 42  1  0      
 42 43  1  0      
 43 44  1  0      
 44 45  1  0      
 45 46  1  0      
 46 47  1  0      
 46 48  1  0      
 46 49  1  0      
 49 50  1  0      
 49 51  1  0      
 51 52  1  0      
 51 53  1  0      
 44 53  1  0      
 42 54  1  0      
 54 55  1  0      
 38 55  1  0      
 55 56  1  0      
 54 57  1  0      
 57 58  1  0      
 57 59  1  0      
M  END
>  <Bioactivity>
A macrolide antibiotic produced by Streptomyces ambofaciens. The drug is effective against gram-positive aerobic pathogens, N. gonorrhoeae, and staphylococci. It is used to treat infections caused by 
bacteria and Toxoplasma gondii.  

>  <CAS>
8025-81-8

>  <Col>
4

>  <Formula>
C43H74N2O14

>  <ID>
T0819

>  <Index>
393

>  <MOLENAME>
Spiramycin

>  <MolWt>
843.07

>  <Pathways>
Microbiology & Virology

>  <Plate>
PLATE 005

>  <QR code>
1151479846

>  <Receptor>
Others

>  <Reference>
1. Poulsen SM, et al. J Mol Biol, 2000, 304(3), 471-481.

>  <Row>
H

>  <SMILES>
COC1C(O)CC(=O)OC(C)CC=CC=CC(OC2CCC(C(C)O2)N(C)C)C(C)CC(CC=O)C1OC1OC(C)C(OC2CC(C)(O)C(O)C(C)O2)C(C1O)N(C)C

>  <Target>
Antibiotic

>  <Weight>
10.2mg

$$$$
Lab-1.sdf
  ChemDraw05232018482D

  9  9  0  0  0  0  0  0  0  0999 V2000
   -0.7144    0.0000    0.0000 O   0  0  0  0  0  0  0  0  0  0  0  0
    0.0001    0.0000    0.0000 C   0  0  0  0  0  0  0  0  0  0  0  0
    0.7144    0.0000    0.0000 O   0  0  0  0  0  0  0  0  0  0  0  0
    0.0001    0.0000    0.0000 C   0  0  0  0  0  0  0  0  0  0  0  0
    0.7144    0.0000    0.0000 C   0  0  0  0  0  0  0  0  0  0  0  0
    0.7144    0.0000    0.0000 C   0  0  0  0  0  0  0  0  0  0  0  0
    0.0001    0.0000    0.0000 C   0  0  0  0  0  0  0  0  0  0  0  0
   -0.7144    0.0000    0.0000 C   0  0  0  0  0  0  0  0  0  0  0  0
   -0.7144    0.0000    0.0000 C   0  0  0  0  0  0  0  0  0  0  0  0
  1  2  1  0      
  2  3  2  0      
  2  4  1  0      
  4  5  2  0      
  5  6  1  0      
  6  7  2  0      
  7  8  1  0      
  8  9  2  0      
  4  9  1  0      
M  END
>  <Bioactivity>
Benzoic acid is a Nitrogen Binding Agent. The mechanism of action of benzoic acid is as an Ammonium Ion Binding Activity.

>  <CAS>
65-85-0

>  <Col>
5

>  <Formula>
C7H6O2

>  <ID>
T0833

>  <Index>
394

>  <MOLENAME>
Benzoic acid

>  <MolWt>
122.12

>  <Pathways>
Microbiology & Virology

>  <Plate>
PLATE 005

>  <QR code>
1151479847

>  <Receptor>
Others

>  <Reference>
1. Ohtsuki S, et al. J Neurochem. 2002 Oct;83(1):57-66. 

>  <Row>
H

>  <SMILES>
OC(=O)C1=CC=CC=C1

>  <Target>
Antifungal

>  <Weight>
10.3mg

$$$$
Lab-1.sdf
  ChemDraw05232018482D

 12 12  0  0  0  0  0  0  0  0999 V2000
   -1.0717    0.0000    0.0000 C   0  0  0  0  0  0  0  0  0  0  0  0
   -0.3572    0.0000    0.0000 C   0  0  0  0  0  0  0  0  0  0  0  0
   -0.3572    0.0000    0.0000 O   0  0  0  0  0  0  0  0  0  0  0  0
    0.3573    0.0000    0.0000 C   0  0  0  0  0  0  0  0  0  0  0  0
    1.0717    0.0000    0.0000 O   0  0  0  0  0  0  0  0  0  0  0  0
    0.3573    0.0000    0.0000 C   0  0  0  0  0  0  0  0  0  0  0  0
    1.0717    0.0000    0.0000 C   0  0  0  0  0  0  0  0  0  0  0  0
    1.0717    0.0000    0.0000 C   0  0  0  0  0  0  0  0  0  0  0  0
    0.3573    0.0000    0.0000 C   0  0  0  0  0  0  0  0  0  0  0  0
    0.3573    0.0000    0.0000 O   0  0  0  0  0  0  0  0  0  0  0  0
   -0.3572    0.0000    0.0000 C   0  0  0  0  0  0  0  0  0  0  0  0
   -0.3572    0.0000    0.0000 C   0  0  0  0  0  0  0  0  0  0  0  0
  1  2  1  0      
  2  3  1  0      
  3  4  1  0      
  4  5  2  0      
  4  6  1  0      
  6  7  2  0      
  7  8  1  0      
  8  9  2  0      
  9 10  1  0      
  9 11  1  0      
 11 12  2  0      
  6 12  1  0      
M  END
>  <Bioactivity>
Ethylparaben  is the ethyl ester of p-hydroxybenzoic acid, used as an antifungal preservative. and food additive.

>  <CAS>
120-47-8

>  <Col>
6

>  <Formula>
C9H10O3

>  <ID>
T0834

>  <Index>
395

>  <MOLENAME>
Ethylparaben

>  <MolWt>
166.17

>  <Pathways>
Microbiology & Virology

>  <Plate>
PLATE 005

>  <QR code>
1151479848

>  <Receptor>
Others

>  <Reference>
1. Jianmei C, et al. Microbiol Res. 2015 Mar; 172:48-56. 

>  <Row>
H

>  <SMILES>
CCOC(=O)C1=CC=C(O)C=C1

>  <Target>
Antifungal

>  <Weight>
10.4mg

$$$$
Lab-1.sdf
  ChemDraw05232018482D

 21 24  0  0  0  0  0  0  0  0999 V2000
   -2.1307    0.0000    0.0000 C   0  0  0  0  0  0  0  0  0  0  0  0
   -1.7709    0.0000    0.0000 C   0  0  0  0  0  0  0  0  0  0  0  0
   -1.2390    0.0000    0.0000 C   0  0  0  0  0  0  0  0  0  0  0  0
   -0.4269    0.0000    0.0000 C   0  0  0  0  0  0  0  0  0  0  0  0
   -0.1466    0.0000    0.0000 C   0  0  0  0  0  0  0  0  0  0  0  0
   -0.6784    0.0000    0.0000 C   0  0  0  0  0  0  0  0  0  0  0  0
   -0.3982    0.0000    0.0000 C   0  0  0  0  0  0  0  0  0  0  0  0
    0.4140    0.0000    0.0000 C   0  0  0  0  0  0  0  0  0  0  0  0
    0.9458    0.0000    0.0000 C   0  0  0  0  0  0  0  0  0  0  0  0
    1.7579    0.0000    0.0000 C   0  0  0  0  0  0  0  0  0  0  0  0
    2.2898    0.0000    0.0000 C   0  0  0  0  0  0  0  0  0  0  0  0
    3.1019    0.0000    0.0000 O   0  0  0  0  0  0  0  0  0  0  0  0
    2.0094    0.0000    0.0000 C   0  0  0  0  0  0  0  0  0  0  0  0
    1.1973    0.0000    0.0000 C   0  0  0  0  0  0  0  0  0  0  0  0
    0.6655    0.0000    0.0000 C   0  0  0  0  0  0  0  0  0  0  0  0
    0.3852    0.0000    0.0000 C   0  0  0  0  0  0  0  0  0  0  0  0
   -1.4906    0.0000    0.0000 C   0  0  0  0  0  0  0  0  0  0  0  0
   -2.1420    0.0000    0.0000 C   0  0  0  0  0  0  0  0  0  0  0  0
   -2.8248    0.0000    0.0000 C   0  0  0  0  0  0  0  0  0  0  0  0
   -2.5955    0.0000    0.0000 C   0  0  0  0  0  0  0  0  0  0  0  0
   -3.1019    0.0000    0.0000 O   0  0  0  0  0  0  0  0  0  0  0  0
  1  2  1  0      
  2  3  1  0      
  3  4  1  0      
  4  5  1  0      
  5  6  1  0      
  6  7  1  0      
  7  8  1  0      
  8  9  1  0      
  9 10  2  0      
 10 11  1  0      
 11 12  2  0      
 11 13  1  0      
 13 14  1  0      
 14 15  1  0      
  5 15  1  0      
  9 15  1  0      
 15 16  1  0      
  6 17  1  0      
  2 17  1  0      
 17 18  1  0      
 18 19  1  0      
 19 20  1  0      
  2 20  1  0      
 20 21  1  0      
M  END
>  <Bioactivity>
Testosterone is a steroid hormone from the androgen group and is found in mammals, reptiles, birds, and other vertebrates.

>  <CAS>
58-22-0

>  <Col>
7

>  <Formula>
C19H28O2

>  <ID>
T0842

>  <Index>
396

>  <MOLENAME>
Testosterone

>  <MolWt>
288.42

>  <Pathways>
Endocrinology/ Hormones

>  <Plate>
PLATE 005

>  <QR code>
1151479849

>  <Receptor>
Androgens receptor

>  <Reference>
1. Omwancha J, Brown TR. Curr Opin Investig Drugs. 2006 Oct; 7(10):873-81.

>  <Row>
H

>  <SMILES>
CC12CCC3C(CCC4=CC(=O)CCC34C)C1CCC2O

>  <Target>
Androgens Receptor agonist

>  <Weight>
10.3mg

$$$$
Lab-1.sdf
  ChemDraw05232018482D

 11 10  0  0  0  0  0  0  0  0999 V2000
   -0.3572    0.0000    0.0000 C   0  0  0  0  0  0  0  0  0  0  0  0
    0.0552    0.0000    0.0000 N   0  3  0  0  0  0  0  0  0  0  0  0
   -0.6592    0.0000    0.0000 C   0  0  0  0  0  0  0  0  0  0  0  0
    0.7697    0.0000    0.0000 C   0  0  0  0  0  0  0  0  0  0  0  0
    0.4677    0.0000    0.0000 C   0  0  0  0  0  0  0  0  0  0  0  0
    0.0552    0.0000    0.0000 C   0  0  0  0  0  0  0  0  0  0  0  0
   -0.7697    0.0000    0.0000 O   0  0  0  0  0  0  0  0  0  0  0  0
    0.4677    0.0000    0.0000 C   0  0  0  0  0  0  0  0  0  0  0  0
    0.0552    0.0000    0.0000 C   0  0  0  0  0  0  0  0  0  0  0  0
    0.4677    0.0000    0.0000 O   0  5  0  0  0  0  0  0  0  0  0  0
   -0.7697    0.0000    0.0000 O   0  0  0  0  0  0  0  0  0  0  0  0
  1  2  1  0      
  2  3  1  0      
  2  4  1  0      
  2  5  1  0      
  5  6  1  0      
  6  7  1  0      
  6  8  1  0      
  8  9  1  0      
  9 10  1  0      
  9 11  2  0      
M  CHG  2   2   1  10  -1
M  END
>  <Bioactivity>
L-carnitine is constituent of striated muscle and liver. It is used therapeutically to stimulate gastric and pancreatic secretions and in the treatment of hyperlipoproteinemias.

>  <CAS>
541-15-1

>  <Col>
8

>  <Formula>
C7H15NO3

>  <ID>
T0846

>  <Index>
397

>  <MOLENAME>
L(-)-Carnitine

>  <MolWt>
161.2

>  <Pathways>
Metabolism

>  <Plate>
PLATE 005

>  <QR code>
1151479850

>  <Receptor>
Fatty acid

>  <Reference>
1. Jogl G, Tong L. Cell. 2003 Jan 10; 112(1):113-22. 

>  <Row>
H

>  <SMILES>
C[N+](C)(C)CC(O)CC([O-])=O

>  <Target>
Fatty acid carrier

>  <Weight>
10.3mg

$$$$
Lab-1.sdf
  ChemDraw05232018482D

 28 31  0  0  0  0  0  0  0  0999 V2000
   -1.4673    0.0000    0.0000 C   0  0  0  0  0  0  0  0  0  0  0  0
   -1.7782    0.0000    0.0000 C   0  0  0  0  0  0  0  0  0  0  0  0
   -2.5955    0.0000    0.0000 C   0  0  0  0  0  0  0  0  0  0  0  0
   -3.1019    0.0000    0.0000 C   0  0  0  0  0  0  0  0  0  0  0  0
   -3.9191    0.0000    0.0000 C   0  0  0  0  0  0  0  0  0  0  0  0
   -4.4255    0.0000    0.0000 O   0  0  0  0  0  0  0  0  0  0  0  0
   -4.2300    0.0000    0.0000 O   0  0  0  0  0  0  0  0  0  0  0  0
   -1.2718    0.0000    0.0000 C   0  0  0  0  0  0  0  0  0  0  0  0
   -1.5011    0.0000    0.0000 C   0  0  0  0  0  0  0  0  0  0  0  0
   -0.8183    0.0000    0.0000 C   0  0  0  0  0  0  0  0  0  0  0  0
   -0.1670    0.0000    0.0000 C   0  0  0  0  0  0  0  0  0  0  0  0
    0.6452    0.0000    0.0000 C   0  0  0  0  0  0  0  0  0  0  0  0
    0.9254    0.0000    0.0000 C   0  0  0  0  0  0  0  0  0  0  0  0
    0.3936    0.0000    0.0000 O   0  0  0  0  0  0  0  0  0  0  0  0
    1.7376    0.0000    0.0000 C   0  0  0  0  0  0  0  0  0  0  0  0
    2.2695    0.0000    0.0000 C   0  0  0  0  0  0  0  0  0  0  0  0
    3.0816    0.0000    0.0000 C   0  0  0  0  0  0  0  0  0  0  0  0
    3.6134    0.0000    0.0000 C   0  0  0  0  0  0  0  0  0  0  0  0
    4.4255    0.0000    0.0000 O   0  0  0  0  0  0  0  0  0  0  0  0
    3.3331    0.0000    0.0000 C   0  0  0  0  0  0  0  0  0  0  0  0
    2.5210    0.0000    0.0000 C   0  0  0  0  0  0  0  0  0  0  0  0
    1.9891    0.0000    0.0000 C   0  0  0  0  0  0  0  0  0  0  0  0
    1.7088    0.0000    0.0000 C   0  0  0  0  0  0  0  0  0  0  0  0
    1.1770    0.0000    0.0000 C   0  0  0  0  0  0  0  0  0  0  0  0
    0.8967    0.0000    0.0000 C   0  0  0  0  0  0  0  0  0  0  0  0
    0.0846    0.0000    0.0000 C   0  0  0  0  0  0  0  0  0  0  0  0
   -0.4473    0.0000    0.0000 C   0  0  0  0  0  0  0  0  0  0  0  0
   -0.8071    0.0000    0.0000 C   0  0  0  0  0  0  0  0  0  0  0  0
  1  2  1  0      
  2  3  1  0      
  3  4  1  0      
  4  5  1  0      
  5  6  1  0      
  5  7  2  0      
  2  8  1  0      
  8  9  1  0      
  9 10  1  0      
 10 11  1  0      
 11 12  1  0      
 12 13  1  0      
 13 14  1  0      
 13 15  1  0      
 15 16  1  0      
 16 17  1  0      
 17 18  1  0      
 18 19  1  0      
 18 20  1  0      
 20 21  1  0      
 21 22  1  0      
 16 22  1  0      
 22 23  1  0      
 22 24  1  0      
 12 24  1  0      
 24 25  1  0      
 25 26  1  0      
 26 27  1  0      
  8 27  1  0      
 11 27  1  0      
 27 28  1  0      
M  END
>  <Bioactivity>
Chenodeoxycholic Acid (CDCA), is a hydrophobic primary bile acid that activates nuclear receptors(FXR) involved in cholesterol metabolism.

>  <CAS>
474-25-9

>  <Col>
9

>  <Formula>
C24H40O4

>  <ID>
T0847

>  <Index>
398

>  <MOLENAME>
Chenodeoxycholic acid

>  <MolWt>
392.57

>  <Pathways>
Metabolism

>  <Plate>
PLATE 005

>  <QR code>
1151479851

>  <Receptor>
Bile acid receptor

>  <Reference>
1. Makishima M, et al. Science. 1999 May 21; 284(5418):1362-5. 

>  <Row>
H

>  <SMILES>
CC(CCC(O)=O)C1CCC2C3C(O)CC4CC(O)CCC4(C)C3CCC12C

>  <Target>
Biliation activator

>  <Weight>
10.1mg

$$$$
Lab-1.sdf
  ChemDraw05232018482D

 14 14  0  0  0  0  0  0  0  0999 V2000
   -1.4289    0.0000    0.0000 N   0  0  0  0  0  0  0  0  0  0  0  0
   -0.7144    0.0000    0.0000 C   0  0  0  0  0  0  0  0  0  0  0  0
    0.0000    0.0000    0.0000 C   0  0  0  0  0  0  0  0  0  0  0  0
    0.0000    0.0000    0.0000 C   0  0  0  0  0  0  0  0  0  0  0  0
    0.7144    0.0000    0.0000 C   0  0  0  0  0  0  0  0  0  0  0  0
    0.7144    0.0000    0.0000 C   0  0  0  0  0  0  0  0  0  0  0  0
    1.4289    0.0000    0.0000 O   0  0  0  0  0  0  0  0  0  0  0  0
    0.0000    0.0000    0.0000 C   0  0  0  0  0  0  0  0  0  0  0  0
    0.0000    0.0000    0.0000 O   0  0  0  0  0  0  0  0  0  0  0  0
   -0.7144    0.0000    0.0000 C   0  0  0  0  0  0  0  0  0  0  0  0
   -0.7144    0.0000    0.0000 C   0  0  0  0  0  0  0  0  0  0  0  0
   -0.7144    0.0000    0.0000 C   0  0  0  0  0  0  0  0  0  0  0  0
   -1.4289    0.0000    0.0000 O   0  0  0  0  0  0  0  0  0  0  0  0
    0.0000    0.0000    0.0000 O   0  0  0  0  0  0  0  0  0  0  0  0
  1  2  1  0      
  2  3  1  0      
  3  4  1  0      
  4  5  2  0      
  5  6  1  0      
  6  7  1  0      
  6  8  2  0      
  8  9  1  0      
  8 10  1  0      
 10 11  2  0      
  4 11  1  0      
  2 12  1  0      
 12 13  1  0      
 12 14  2  0      
M  END
>  <Bioactivity>
L-DOPA is a natural form of DOPA used in the treatment of Parkinson&#39;s disease. L-DOPA&nbsp; is the precursor of dopamine and product of tyrosine hydroxylase.

>  <CAS>
59-92-7

>  <Col>
10

>  <Formula>
C9H11NO4

>  <ID>
T0848

>  <Index>
399

>  <MOLENAME>
Levodopa

>  <MolWt>
197.19

>  <Pathways>
Neuroscience

>  <Plate>
PLATE 005

>  <QR code>
1151479852

>  <Receptor>
Dopamine receptor

>  <Reference>
1. Onofrj M, et al. Expert Opin Investig Drugs. 2008 Jul; 17(7):1115-25. 

>  <Row>
H

>  <SMILES>
NC(CC1=CC(O)=C(O)C=C1)C(O)=O

>  <Target>
Dopamine Receptor agonist

>  <Weight>
10.2mg

$$$$
Lab-1.sdf
  ChemDraw05232018482D

 23 26  0  0  0  0  0  0  0  0999 V2000
   -3.5105    0.0000    0.0000 C   0  0  0  0  0  0  0  0  0  0  0  0
   -2.6933    0.0000    0.0000 C   0  0  0  0  0  0  0  0  0  0  0  0
   -2.3824    0.0000    0.0000 O   0  0  0  0  0  0  0  0  0  0  0  0
   -2.1869    0.0000    0.0000 C   0  0  0  0  0  0  0  0  0  0  0  0
   -2.4162    0.0000    0.0000 C   0  0  0  0  0  0  0  0  0  0  0  0
   -1.7333    0.0000    0.0000 C   0  0  0  0  0  0  0  0  0  0  0  0
   -1.0820    0.0000    0.0000 C   0  0  0  0  0  0  0  0  0  0  0  0
   -0.2698    0.0000    0.0000 C   0  0  0  0  0  0  0  0  0  0  0  0
    0.0104    0.0000    0.0000 C   0  0  0  0  0  0  0  0  0  0  0  0
    0.8226    0.0000    0.0000 C   0  0  0  0  0  0  0  0  0  0  0  0
    1.3544    0.0000    0.0000 C   0  0  0  0  0  0  0  0  0  0  0  0
    2.1666    0.0000    0.0000 C   0  0  0  0  0  0  0  0  0  0  0  0
    2.6984    0.0000    0.0000 C   0  0  0  0  0  0  0  0  0  0  0  0
    3.5105    0.0000    0.0000 O   0  0  0  0  0  0  0  0  0  0  0  0
    2.4181    0.0000    0.0000 C   0  0  0  0  0  0  0  0  0  0  0  0
    1.6059    0.0000    0.0000 C   0  0  0  0  0  0  0  0  0  0  0  0
    1.0741    0.0000    0.0000 C   0  0  0  0  0  0  0  0  0  0  0  0
    0.7938    0.0000    0.0000 C   0  0  0  0  0  0  0  0  0  0  0  0
    0.2620    0.0000    0.0000 C   0  0  0  0  0  0  0  0  0  0  0  0
   -0.0183    0.0000    0.0000 C   0  0  0  0  0  0  0  0  0  0  0  0
   -0.8304    0.0000    0.0000 C   0  0  0  0  0  0  0  0  0  0  0  0
   -1.3623    0.0000    0.0000 C   0  0  0  0  0  0  0  0  0  0  0  0
   -1.7221    0.0000    0.0000 C   0  0  0  0  0  0  0  0  0  0  0  0
  1  2  1  0      
  2  3  2  0      
  2  4  1  0      
  4  5  1  0      
  5  6  1  0      
  6  7  1  0      
  7  8  1  0      
  8  9  1  0      
  9 10  1  0      
 10 11  2  0      
 11 12  1  0      
 12 13  1  0      
 13 14  1  0      
 13 15  1  0      
 15 16  1  0      
 16 17  1  0      
 11 17  1  0      
 17 18  1  0      
 17 19  1  0      
  8 19  1  0      
 19 20  1  0      
 20 21  1  0      
 21 22  1  0      
  4 22  1  0      
  7 22  1  0      
 22 23  1  0      
M  END
>  <Bioactivity>
A 21-carbon steroid, derived from CHOLESTEROL and found in steroid hormone-producing tissues. Pregnenolone is the precursor to GONADAL STEROID HORMONES and the adrenal CORTICOSTEROIDS. 

>  <CAS>
145-13-1

>  <Col>
11

>  <Formula>
C21H32O2

>  <ID>
T0851

>  <Index>
400

>  <MOLENAME>
Pregnenolone

>  <MolWt>
316.48

>  <Pathways>
Neuroscience

>  <Plate>
PLATE 005

>  <QR code>
1151479853

>  <Receptor>
Muscarinic AChR

>  <Reference>
1. Wong P, et al. Transl Psychiatry. 2015 Mar 17; 5:e528.

>  <Row>
H

>  <SMILES>
CC(=O)C1CCC2C3CC=C4CC(O)CCC4(C)C3CCC12C

>  <Target>
AChR agonist

>  <Weight>
10.2mg

$$$$
Lab-1.sdf
  ChemDraw05232018482D

 19 21  0  0  0  0  0  0  0  0999 V2000
    1.2458    0.0000    0.0000 N   0  0  0  0  0  0  0  0  0  0  0  0
    1.2458    0.0000    0.0000 C   0  0  0  0  0  0  0  0  0  0  0  0
    1.9603    0.0000    0.0000 N   0  0  0  0  0  0  0  0  0  0  0  0
    1.9603    0.0000    0.0000 C   0  0  0  0  0  0  0  0  0  0  0  0
    1.2458    0.0000    0.0000 N   0  0  0  0  0  0  0  0  0  0  0  0
    0.5314    0.0000    0.0000 C   0  0  0  0  0  0  0  0  0  0  0  0
    0.5314    0.0000    0.0000 C   0  0  0  0  0  0  0  0  0  0  0  0
   -0.2533    0.0000    0.0000 N   0  0  0  0  0  0  0  0  0  0  0  0
   -0.7382    0.0000    0.0000 C   0  0  0  0  0  0  0  0  0  0  0  0
   -0.2533    0.0000    0.0000 N   0  0  0  0  0  0  0  0  0  0  0  0
   -0.5082    0.0000    0.0000 C   0  0  0  0  0  0  0  0  0  0  0  0
   -0.0233    0.0000    0.0000 O   0  0  0  0  0  0  0  0  0  0  0  0
   -0.5082    0.0000    0.0000 C   0  0  0  0  0  0  0  0  0  0  0  0
   -0.2533    0.0000    0.0000 C   0  0  0  0  0  0  0  0  0  0  0  0
    0.5537    0.0000    0.0000 O   0  0  0  0  0  0  0  0  0  0  0  0
   -1.2928    0.0000    0.0000 C   0  0  0  0  0  0  0  0  0  0  0  0
   -1.9603    0.0000    0.0000 O   0  0  0  0  0  0  0  0  0  0  0  0
   -1.2928    0.0000    0.0000 C   0  0  0  0  0  0  0  0  0  0  0  0
   -1.9603    0.0000    0.0000 O   0  0  0  0  0  0  0  0  0  0  0  0
  1  2  1  0      
  2  3  2  0      
  3  4  1  0      
  4  5  2  0      
  5  6  1  0      
  6  7  2  0      
  2  7  1  0      
  7  8  1  0      
  8  9  2  0      
  9 10  1  0      
  6 10  1  0      
 10 11  1  0      
 11 12  1  0      
 12 13  1  0      
 13 14  1  0      
 14 15  1  0      
 13 16  1  0      
 16 17  1  0      
 16 18  1  0      
 11 18  1  0      
 18 19  1  0      
M  END
>  <Bioactivity>
Adenosine is a nucleoside composed of a molecule of adenine attached to a ribose sugar molecule (ribofuranose) moiety via a ¦Â-N9-glycosidic bond.

>  <CAS>
58-61-7

>  <Col>
2

>  <Formula>
C10H13N5O4

>  <ID>
T0853

>  <Index>
401

>  <MOLENAME>
Adenosine

>  <MolWt>
267.24

>  <Pathways>
DNA Damage/DNA Repair

>  <Plate>
PLATE 006

>  <QR code>
1151480321

>  <Receptor>
Nucleoside

>  <Reference>
1. Zhou JZ, et al. Oncogene. 2015 Apr 2;34(14):1831-42. 

>  <Row>
A

>  <SMILES>
NC1=NC=NC2=C1N=CN2C1OC(CO)C(O)C1O

>  <Target>
Nucleoside Antimetabolite/Analogue

>  <Weight>
10.2mg

$$$$
Lab-1.sdf
  ChemDraw05232018482D

 24 25  0  0  0  0  0  0  0  0999 V2000
   -0.7145    0.0000    0.0000 N   0  0  0  0  0  0  0  0  0  0  0  0
   -0.0001    0.0000    0.0000 C   0  0  0  0  0  0  0  0  0  0  0  0
    0.7144    0.0000    0.0000 C   0  0  0  0  0  0  0  0  0  0  0  0
    0.7144    0.0000    0.0000 C   0  0  0  0  0  0  0  0  0  0  0  0
    1.4289    0.0000    0.0000 C   0  0  0  0  0  0  0  0  0  0  0  0
    1.4289    0.0000    0.0000 C   0  0  0  0  0  0  0  0  0  0  0  0
    2.1434    0.0000    0.0000 I   0  0  0  0  0  0  0  0  0  0  0  0
    0.7144    0.0000    0.0000 C   0  0  0  0  0  0  0  0  0  0  0  0
    0.7144    0.0000    0.0000 O   0  0  0  0  0  0  0  0  0  0  0  0
   -0.0001    0.0000    0.0000 C   0  0  0  0  0  0  0  0  0  0  0  0
   -0.0001    0.0000    0.0000 C   0  0  0  0  0  0  0  0  0  0  0  0
   -0.7145    0.0000    0.0000 C   0  0  0  0  0  0  0  0  0  0  0  0
   -0.7145    0.0000    0.0000 I   0  0  0  0  0  0  0  0  0  0  0  0
   -1.4289    0.0000    0.0000 C   0  0  0  0  0  0  0  0  0  0  0  0
   -2.1434    0.0000    0.0000 O   0  0  0  0  0  0  0  0  0  0  0  0
   -1.4289    0.0000    0.0000 C   0  0  0  0  0  0  0  0  0  0  0  0
   -2.1434    0.0000    0.0000 I   0  0  0  0  0  0  0  0  0  0  0  0
   -0.7145    0.0000    0.0000 C   0  0  0  0  0  0  0  0  0  0  0  0
   -0.0001    0.0000    0.0000 C   0  0  0  0  0  0  0  0  0  0  0  0
   -0.7145    0.0000    0.0000 I   0  0  0  0  0  0  0  0  0  0  0  0
   -0.0001    0.0000    0.0000 C   0  0  0  0  0  0  0  0  0  0  0  0
   -0.0001    0.0000    0.0000 C   0  0  0  0  0  0  0  0  0  0  0  0
   -0.7145    0.0000    0.0000 O   0  0  0  0  0  0  0  0  0  0  0  0
    0.7144    0.0000    0.0000 O   0  0  0  0  0  0  0  0  0  0  0  0
  1  2  1  0      
  2  3  1  0      
  3  4  1  0      
  4  5  2  0      
  5  6  1  0      
  6  7  1  0      
  6  8  2  0      
  8  9  1  0      
  9 10  1  0      
 10 11  2  0      
 11 12  1  0      
 12 13  1  0      
 12 14  2  0      
 14 15  1  0      
 14 16  1  0      
 16 17  1  0      
 16 18  2  0      
 10 18  1  0      
  8 19  1  0      
 19 20  1  0      
 19 21  2  0      
  4 21  1  0      
  2 22  1  0      
 22 23  1  0      
 22 24  2  0      
M  END
>  <Bioactivity>
L-Thyroxine(Levothyroxine) is an iodine containing hormone produced from thyroglobulin in the thyroid follicular cells; reduces total cholesterol level, low-density lipoprotein cholesterol as well as 
waist to hip ratio in subclinical hypothyroidism pateints.

>  <CAS>
51-48-9

>  <Col>
3

>  <Formula>
C15H11I4NO4

>  <ID>
T0864

>  <Index>
402

>  <MOLENAME>
L-Thyroxine

>  <MolWt>
776.87

>  <Pathways>
Endocrinology/ Hormones

>  <Plate>
PLATE 006

>  <QR code>
1151480320

>  <Receptor>
Thyroid hormone receptor

>  <Reference>
1. Marazuela M, et al. Thyroid. 2008 Oct; 18(10):1119-23. 

>  <Row>
A

>  <SMILES>
NC(CC1=CC(I)=C(OC2=CC(I)=C(O)C(I)=C2)C(I)=C1)C(O)=O

>  <Target>
Thyroid hormone receptor agonist

>  <Weight>
10.1mg

$$$$
Lab-1.sdf
  ChemDraw05232018482D

 47 50  0  0  0  0  0  0  0  0999 V2000
   -2.7912    0.0000    0.0000 O   0  0  0  0  0  0  0  0  0  0  0  0
   -2.7912    0.0000    0.0000 S   0  0  0  0  0  0  0  0  0  0  0  0
   -2.7912    0.0000    0.0000 O   0  0  0  0  0  0  0  0  0  0  0  0
   -1.9662    0.0000    0.0000 O   0  0  0  0  0  0  0  0  0  0  0  0
   -3.6162    0.0000    0.0000 O   0  0  0  0  0  0  0  0  0  0  0  0
    1.9085    0.0000    0.0000 C   0  0  0  0  0  0  0  0  0  0  0  0
    1.3565    0.0000    0.0000 N   0  0  0  0  0  0  0  0  0  0  0  0
    1.6192    0.0000    0.0000 C   0  0  0  0  0  0  0  0  0  0  0  0
    0.8034    0.0000    0.0000 C   0  0  0  0  0  0  0  0  0  0  0  0
    0.3909    0.0000    0.0000 C   0  0  0  0  0  0  0  0  0  0  0  0
    0.6923    0.0000    0.0000 C   0  0  0  0  0  0  0  0  0  0  0  0
    1.4807    0.0000    0.0000 C   0  0  0  0  0  0  0  0  0  0  0  0
    2.1623    0.0000    0.0000 C   0  0  0  0  0  0  0  0  0  0  0  0
    2.2240    0.0000    0.0000 C   0  0  0  0  0  0  0  0  0  0  0  0
    2.8768    0.0000    0.0000 O   0  0  0  0  0  0  0  0  0  0  0  0
    2.8768    0.0000    0.0000 C   0  0  0  0  0  0  0  0  0  0  0  0
    2.1623    0.0000    0.0000 O   0  0  0  0  0  0  0  0  0  0  0  0
    3.5913    0.0000    0.0000 C   0  0  0  0  0  0  0  0  0  0  0  0
    4.3057    0.0000    0.0000 C   0  0  0  0  0  0  0  0  0  0  0  0
    5.0201    0.0000    0.0000 O   0  0  0  0  0  0  0  0  0  0  0  0
    3.5913    0.0000    0.0000 C   0  0  0  0  0  0  0  0  0  0  0  0
    4.3057    0.0000    0.0000 C   0  0  0  0  0  0  0  0  0  0  0  0
    4.3057    0.0000    0.0000 C   0  0  0  0  0  0  0  0  0  0  0  0
    3.5913    0.0000    0.0000 C   0  0  0  0  0  0  0  0  0  0  0  0
    2.8768    0.0000    0.0000 C   0  0  0  0  0  0  0  0  0  0  0  0
    2.8768    0.0000    0.0000 C   0  0  0  0  0  0  0  0  0  0  0  0
   -3.5027    0.0000    0.0000 C   0  0  0  0  0  0  0  0  0  0  0  0
   -4.0546    0.0000    0.0000 N   0  0  0  0  0  0  0  0  0  0  0  0
   -3.7919    0.0000    0.0000 C   0  0  0  0  0  0  0  0  0  0  0  0
   -4.6076    0.0000    0.0000 C   0  0  0  0  0  0  0  0  0  0  0  0
   -5.0201    0.0000    0.0000 C   0  0  0  0  0  0  0  0  0  0  0  0
   -4.7187    0.0000    0.0000 C   0  0  0  0  0  0  0  0  0  0  0  0
   -3.9304    0.0000    0.0000 C   0  0  0  0  0  0  0  0  0  0  0  0
   -3.2488    0.0000    0.0000 C   0  0  0  0  0  0  0  0  0  0  0  0
   -3.1872    0.0000    0.0000 C   0  0  0  0  0  0  0  0  0  0  0  0
   -2.5343    0.0000    0.0000 O   0  0  0  0  0  0  0  0  0  0  0  0
   -2.5343    0.0000    0.0000 C   0  0  0  0  0  0  0  0  0  0  0  0
   -3.2488    0.0000    0.0000 O   0  0  0  0  0  0  0  0  0  0  0  0
   -1.8199    0.0000    0.0000 C   0  0  0  0  0  0  0  0  0  0  0  0
   -1.1054    0.0000    0.0000 C   0  0  0  0  0  0  0  0  0  0  0  0
   -0.3909    0.0000    0.0000 O   0  0  0  0  0  0  0  0  0  0  0  0
   -1.8199    0.0000    0.0000 C   0  0  0  0  0  0  0  0  0  0  0  0
   -1.1054    0.0000    0.0000 C   0  0  0  0  0  0  0  0  0  0  0  0
   -1.1054    0.0000    0.0000 C   0  0  0  0  0  0  0  0  0  0  0  0
   -1.8199    0.0000    0.0000 C   0  0  0  0  0  0  0  0  0  0  0  0
   -2.5343    0.0000    0.0000 C   0  0  0  0  0  0  0  0  0  0  0  0
   -2.5343    0.0000    0.0000 C   0  0  0  0  0  0  0  0  0  0  0  0
  1  2  1  0      
  2  3  1  0      
  2  4  2  0      
  2  5  2  0      
  6  7  1  0      
  7  8  1  0      
  8  9  1  0      
  9 10  1  0      
 10 11  1  0      
  7 11  1  0      
 11 12  1  0      
 12 13  1  0      
 13 14  1  0      
  8 14  1  0      
 13 15  1  0      
 15 16  1  0      
 16 17  2  0      
 16 18  1  0      
 18 19  1  0      
 19 20  1  0      
 18 21  1  0      
 21 22  2  0      
 22 23  1  0      
 23 24  2  0      
 24 25  1  0      
 25 26  2  0      
 21 26  1  0      
 27 28  1  0      
 28 29  1  0      
 29 30  1  0      
 30 31  1  0      
 31 32  1  0      
 28 32  1  0      
 32 33  1  0      
 33 34  1  0      
 34 35  1  0      
 29 35  1  0      
 34 36  1  0      
 36 37  1  0      
 37 38  2  0      
 37 39  1  0      
 39 40  1  0      
 40 41  1  0      
 39 42  1  0      
 42 43  2  0      
 43 44  1  0      
 44 45  2  0      
 45 46  1  0      
 46 47  2  0      
 42 47  1  0      
M  END
>  <Bioactivity>
Atropine sulfate is a competitive muscarinic acetylcholine receptor antagonist.

>  <CAS>
55-48-1

>  <Col>
4

>  <Formula>
2C17H23NO3?H2SO4

>  <ID>
T0375L2

>  <Index>
403

>  <MOLENAME>
Atropine sulfate

>  <MolWt>
676.82

>  <Pathways>
Neuroscience

>  <Plate>
PLATE 006

>  <QR code>
1151480319

>  <Receptor>
Muscarinic AChR

>  <Reference>
1. Huang XP, et al. J Pharmacol Exp Ther. 1998 Sep; 286(3):1129-39. 

>  <Row>
A

>  <SMILES>
OS(O)(=O)=O.CN1C2CCC1CC(C2)OC(=O)C(CO)C1=CC=CC=C1.CN1C2CCC1CC(C2)OC(=O)C(CO)C1=CC=CC=C1

>  <Target>
AChR antagonist

>  <Weight>
10.2mg

$$$$
Lab-1.sdf
  ChemDraw05232018482D

 22 25  0  0  0  0  0  0  0  0999 V2000
   -3.2548    0.0000    0.0000 C   0  0  0  0  0  0  0  0  0  0  0  0
   -2.4426    0.0000    0.0000 C   0  0  0  0  0  0  0  0  0  0  0  0
   -2.3831    0.0000    0.0000 O   0  0  0  0  0  0  0  0  0  0  0  0
   -2.6719    0.0000    0.0000 C   0  0  0  0  0  0  0  0  0  0  0  0
   -1.9890    0.0000    0.0000 C   0  0  0  0  0  0  0  0  0  0  0  0
   -1.3377    0.0000    0.0000 C   0  0  0  0  0  0  0  0  0  0  0  0
   -0.5255    0.0000    0.0000 C   0  0  0  0  0  0  0  0  0  0  0  0
   -0.2453    0.0000    0.0000 C   0  0  0  0  0  0  0  0  0  0  0  0
    0.5669    0.0000    0.0000 C   0  0  0  0  0  0  0  0  0  0  0  0
    1.0987    0.0000    0.0000 C   0  0  0  0  0  0  0  0  0  0  0  0
    1.9108    0.0000    0.0000 C   0  0  0  0  0  0  0  0  0  0  0  0
    2.4427    0.0000    0.0000 C   0  0  0  0  0  0  0  0  0  0  0  0
    3.2548    0.0000    0.0000 O   0  0  0  0  0  0  0  0  0  0  0  0
    2.1623    0.0000    0.0000 C   0  0  0  0  0  0  0  0  0  0  0  0
    1.3502    0.0000    0.0000 C   0  0  0  0  0  0  0  0  0  0  0  0
    0.8184    0.0000    0.0000 C   0  0  0  0  0  0  0  0  0  0  0  0
    0.5381    0.0000    0.0000 C   0  0  0  0  0  0  0  0  0  0  0  0
    0.0063    0.0000    0.0000 C   0  0  0  0  0  0  0  0  0  0  0  0
   -0.2740    0.0000    0.0000 C   0  0  0  0  0  0  0  0  0  0  0  0
   -1.0861    0.0000    0.0000 C   0  0  0  0  0  0  0  0  0  0  0  0
   -1.6180    0.0000    0.0000 C   0  0  0  0  0  0  0  0  0  0  0  0
   -1.9778    0.0000    0.0000 C   0  0  0  0  0  0  0  0  0  0  0  0
  1  2  1  0      
  2  3  1  0      
  2  4  1  0      
  4  5  1  0      
  5  6  1  0      
  6  7  1  0      
  7  8  1  0      
  8  9  1  0      
  9 10  1  0      
 10 11  2  0      
 11 12  1  0      
 12 13  2  0      
 12 14  1  0      
 14 15  1  0      
 15 16  1  0      
 10 16  1  0      
 16 17  1  0      
 16 18  1  0      
  7 18  1  0      
 18 19  1  0      
 19 20  1  0      
 20 21  1  0      
  2 21  1  0      
  6 21  1  0      
 21 22  1  0      
M  END
>  <Bioactivity>
17¦Á-Methyltestosterone has similar binding affinity to AR and similar androgenic and anabolic activities as testosterone.

>  <CAS>
58-18-4

>  <Col>
5

>  <Formula>
C20H30O2

>  <ID>
T2572

>  <Index>
404

>  <MOLENAME>
17-Methyltestosterone

>  <MolWt>
302.45

>  <Pathways>
Endocrinology/ Hormones

>  <Plate>
PLATE 006

>  <QR code>
1151480318

>  <Receptor>
Androgen Receptor

>  <Reference>
1. Gao J, et al. Environ Toxicol Pharmacol. 2014 May;37(3):1157-68. 

>  <Row>
A

>  <SMILES>
CC1(O)CCC2C3CCC4=CC(=O)CCC4(C)C3CCC12C

>  <Target>
Androgen Receptor agonist

>  <Weight>
10.3mg

$$$$
Lab-1.sdf
  ChemDraw05232018482D

 22 24  0  0  0  0  0  0  0  0999 V2000
   -3.2151    0.0000    0.0000 O   0  0  0  0  0  0  0  0  0  0  0  0
   -2.5007    0.0000    0.0000 C   0  0  0  0  0  0  0  0  0  0  0  0
   -2.5007    0.0000    0.0000 C   0  0  0  0  0  0  0  0  0  0  0  0
   -1.7862    0.0000    0.0000 C   0  0  0  0  0  0  0  0  0  0  0  0
   -1.7862    0.0000    0.0000 O   0  0  0  0  0  0  0  0  0  0  0  0
   -1.0717    0.0000    0.0000 C   0  0  0  0  0  0  0  0  0  0  0  0
   -1.0717    0.0000    0.0000 C   0  0  0  0  0  0  0  0  0  0  0  0
   -0.3573    0.0000    0.0000 O   0  0  0  0  0  0  0  0  0  0  0  0
    0.3572    0.0000    0.0000 C   0  0  0  0  0  0  0  0  0  0  0  0
    0.3572    0.0000    0.0000 C   0  0  0  0  0  0  0  0  0  0  0  0
    1.0717    0.0000    0.0000 O   0  0  0  0  0  0  0  0  0  0  0  0
   -0.3573    0.0000    0.0000 C   0  0  0  0  0  0  0  0  0  0  0  0
   -0.3573    0.0000    0.0000 O   0  0  0  0  0  0  0  0  0  0  0  0
    1.0717    0.0000    0.0000 C   0  0  0  0  0  0  0  0  0  0  0  0
    1.0717    0.0000    0.0000 C   0  0  0  0  0  0  0  0  0  0  0  0
    1.7862    0.0000    0.0000 C   0  0  0  0  0  0  0  0  0  0  0  0
    1.7862    0.0000    0.0000 O   0  0  0  0  0  0  0  0  0  0  0  0
    2.5006    0.0000    0.0000 C   0  0  0  0  0  0  0  0  0  0  0  0
    3.2151    0.0000    0.0000 O   0  0  0  0  0  0  0  0  0  0  0  0
    2.5006    0.0000    0.0000 C   0  0  0  0  0  0  0  0  0  0  0  0
    1.7862    0.0000    0.0000 C   0  0  0  0  0  0  0  0  0  0  0  0
   -1.7862    0.0000    0.0000 C   0  0  0  0  0  0  0  0  0  0  0  0
  1  2  1  0      
  2  3  2  0      
  3  4  1  0      
  4  5  1  0      
  4  6  2  0      
  6  7  1  0      
  7  8  1  0      
  8  9  1  0      
  9 10  2  0      
 10 11  1  0      
 10 12  1  0      
  6 12  1  0      
 12 13  2  0      
  9 14  1  0      
 14 15  2  0      
 15 16  1  0      
 16 17  1  0      
 16 18  2  0      
 18 19  1  0      
 18 20  1  0      
 20 21  2  0      
 14 21  1  0      
  7 22  2  0      
  2 22  1  0      
M  END
>  <Bioactivity>
Quercetin, a natural flavonoid present in vegetables, fruit and wine, is a stimulator of recombinant SIRT1 and also a PI3K inhibitor with IC50 of 2.4-5.4 ¦ÌM. Phase 4.

>  <CAS>
117-39-5

>  <Col>
6

>  <Formula>
C15H10O7

>  <ID>
T2174

>  <Index>
405

>  <MOLENAME>
Quercetin

>  <MolWt>
302.24

>  <Pathways>
Chromatin/Epigenetic

>  <Plate>
PLATE 006

>  <QR code>
1151480317

>  <Receptor>
Sirtuin; Src; PKC; PI3K¦Ã

>  <Reference>
1. Navarro-Nunez L, et al. Fitoterapia, 2010, 81(2):75-80.

>  <Row>
A

>  <SMILES>
OC1=CC(O)=C2C(OC(=C(O)C2=O)C2=CC(O)=C(O)C=C2)=C1

>  <Target>
Sirtuin inhibitor

>  <Weight>
10.3mg

$$$$
Lab-1.sdf
  ChemDraw05232018482D

 20 23  0  0  0  0  0  0  0  0999 V2000
    1.3608    0.0000    0.0000 C   0  0  0  0  0  0  0  0  0  0  0  0
    0.6927    0.0000    0.0000 C   0  0  0  0  0  0  0  0  0  0  0  0
   -0.0051    0.0000    0.0000 C   0  0  0  0  0  0  0  0  0  0  0  0
   -0.5519    0.0000    0.0000 C   0  0  0  0  0  0  0  0  0  0  0  0
   -0.4586    0.0000    0.0000 C   0  0  0  0  0  0  0  0  0  0  0  0
   -1.2666    0.0000    0.0000 C   0  0  0  0  0  0  0  0  0  0  0  0
   -1.8102    0.0000    0.0000 C   0  0  0  0  0  0  0  0  0  0  0  0
   -1.5466    0.0000    0.0000 C   0  0  0  0  0  0  0  0  0  0  0  0
   -2.3059    0.0000    0.0000 O   0  0  0  0  0  0  0  0  0  0  0  0
   -0.8624    0.0000    0.0000 O   0  0  0  0  0  0  0  0  0  0  0  0
   -0.0716    0.0000    0.0000 C   0  0  0  0  0  0  0  0  0  0  0  0
    0.8334    0.0000    0.0000 O   0  0  0  0  0  0  0  0  0  0  0  0
    1.6408    0.0000    0.0000 C   0  0  0  0  0  0  0  0  0  0  0  0
    2.3059    0.0000    0.0000 C   0  0  0  0  0  0  0  0  0  0  0  0
    2.1121    0.0000    0.0000 C   0  0  0  0  0  0  0  0  0  0  0  0
    1.6378    0.0000    0.0000 C   0  0  0  0  0  0  0  0  0  0  0  0
    0.8058    0.0000    0.0000 C   0  0  0  0  0  0  0  0  0  0  0  0
    0.2617    0.0000    0.0000 C   0  0  0  0  0  0  0  0  0  0  0  0
    0.4932    0.0000    0.0000 O   0  0  0  0  0  0  0  0  0  0  0  0
    1.1979    0.0000    0.0000 O   0  0  0  0  0  0  0  0  0  0  0  0
  1  2  1  0      
  2  3  1  0      
  3  4  1  0      
  4  5  1  0      
  5  6  1  0      
  6  7  1  0      
  6  8  1  0      
  8  9  2  0      
  8 10  1  0      
 10 11  1  0      
 11 12  1  0      
 12 13  1  0      
 13 14  1  0      
 13 15  1  0      
 15 16  1  0      
 16 17  1  0      
  2 17  1  0      
 17 18  1  0      
  5 18  1  0      
 11 18  1  0      
 18 19  1  0      
 19 20  1  0      
 13 20  1  0      
M  END
>  <Bioactivity>
Artemisinin is a drug used to treat multi-drug resistant strains of falciparum malaria (as well as increasingly vivax malaria). The compound is isolated from the plant Artemisia annua, a herb describe
d in Chinese traditional medicine, though it is usually chemically modified and combined with other medications. The drug is also being studied as a treatment for Y.

>  <CAS>
63968-64-9

>  <Col>
7

>  <Formula>
C15H22O5

>  <ID>
T0392

>  <Index>
406

>  <MOLENAME>
Artemisinin

>  <MolWt>
282.33

>  <Pathways>
Others

>  <Plate>
PLATE 006

>  <QR code>
1151480316

>  <Receptor>
Others

>  <Reference>
1. Mbengue A, et al. Nature. 2015 Apr 30;520(7549):683-7. 

>  <Row>
A

>  <SMILES>
CC1CCC2C(C)C(=O)OC3OC4(C)CCC1C23OO4

>  <Target>
Others

>  <Weight>
10.4mg

$$$$
Lab-1.sdf
  ChemDraw05232018482D

 21 23  0  0  0  0  0  0  0  0999 V2000
   -0.7970    0.0000    0.0000 C   0  0  0  0  0  0  0  0  0  0  0  0
   -1.3491    0.0000    0.0000 N   0  0  0  0  0  0  0  0  0  0  0  0
   -1.0863    0.0000    0.0000 C   0  0  0  0  0  0  0  0  0  0  0  0
   -1.9021    0.0000    0.0000 C   0  0  0  0  0  0  0  0  0  0  0  0
   -2.3146    0.0000    0.0000 C   0  0  0  0  0  0  0  0  0  0  0  0
   -2.0132    0.0000    0.0000 C   0  0  0  0  0  0  0  0  0  0  0  0
   -1.2248    0.0000    0.0000 C   0  0  0  0  0  0  0  0  0  0  0  0
   -0.5432    0.0000    0.0000 C   0  0  0  0  0  0  0  0  0  0  0  0
   -0.4815    0.0000    0.0000 C   0  0  0  0  0  0  0  0  0  0  0  0
    0.1712    0.0000    0.0000 O   0  0  0  0  0  0  0  0  0  0  0  0
    0.1712    0.0000    0.0000 C   0  0  0  0  0  0  0  0  0  0  0  0
   -0.5432    0.0000    0.0000 O   0  0  0  0  0  0  0  0  0  0  0  0
    0.8857    0.0000    0.0000 C   0  0  0  0  0  0  0  0  0  0  0  0
    1.6001    0.0000    0.0000 C   0  0  0  0  0  0  0  0  0  0  0  0
    2.3146    0.0000    0.0000 O   0  0  0  0  0  0  0  0  0  0  0  0
    0.8857    0.0000    0.0000 C   0  0  0  0  0  0  0  0  0  0  0  0
    1.6001    0.0000    0.0000 C   0  0  0  0  0  0  0  0  0  0  0  0
    1.6001    0.0000    0.0000 C   0  0  0  0  0  0  0  0  0  0  0  0
    0.8857    0.0000    0.0000 C   0  0  0  0  0  0  0  0  0  0  0  0
    0.1712    0.0000    0.0000 C   0  0  0  0  0  0  0  0  0  0  0  0
    0.1712    0.0000    0.0000 C   0  0  0  0  0  0  0  0  0  0  0  0
  1  2  1  0      
  2  3  1  0      
  3  4  1  0      
  4  5  1  0      
  5  6  1  0      
  2  6  1  0      
  6  7  1  0      
  7  8  1  0      
  8  9  1  0      
  3  9  1  0      
  8 10  1  0      
 10 11  1  0      
 11 12  2  0      
 11 13  1  0      
 13 14  1  0      
 14 15  1  0      
 13 16  1  0      
 16 17  2  0      
 17 18  1  0      
 18 19  2  0      
 19 20  1  0      
 20 21  2  0      
 16 21  1  0      
M  END
>  <Bioactivity>
L-Hyoscyamine is a chemical compound, a tropane alkaloid it is the levo-isomer to atropine.

>  <CAS>
101-31-5

>  <Col>
8

>  <Formula>
C17H23NO3

>  <ID>
T0962

>  <Index>
407

>  <MOLENAME>
L-Hyoscyamine

>  <MolWt>
289.38

>  <Pathways>
Neuroscience

>  <Plate>
PLATE 006

>  <QR code>
1151480315

>  <Receptor>
AChR

>  <Reference>
1. Schmeller T, et al. Pharmazie, 1995, 50(7), 493-495.

>  <Row>
A

>  <SMILES>
CN1C2CCC1CC(C2)OC(=O)C(CO)C1=CC=CC=C1

>  <Target>
AChR antagonist

>  <Weight>
10.3mg

$$$$
Lab-1.sdf
  ChemDraw05232018482D

 85 85  0  0  0  0  0  0  0  0999 V2000
   -3.8016    0.0000    0.0000 C   0  0  0  0  0  0  0  0  0  0  0  0
   -3.4235    0.0000    0.0000 C   0  0  0  0  0  0  0  0  0  0  0  0
   -2.5995    0.0000    0.0000 C   0  0  0  0  0  0  0  0  0  0  0  0
   -2.2214    0.0000    0.0000 N   0  0  0  0  0  0  0  0  0  0  0  0
   -2.9359    0.0000    0.0000 C   0  0  0  0  0  0  0  0  0  0  0  0
   -3.6504    0.0000    0.0000 O   0  0  0  0  0  0  0  0  0  0  0  0
   -2.9359    0.0000    0.0000 C   0  0  0  0  0  0  0  0  0  0  0  0
   -3.6504    0.0000    0.0000 C   0  0  0  0  0  0  0  0  0  0  0  0
   -3.6504    0.0000    0.0000 O   0  0  0  0  0  0  0  0  0  0  0  0
   -4.3648    0.0000    0.0000 C   0  0  0  0  0  0  0  0  0  0  0  0
   -5.0793    0.0000    0.0000 C   0  0  0  0  0  0  0  0  0  0  0  0
   -4.3648    0.0000    0.0000 C   0  0  0  0  0  0  0  0  0  0  0  0
   -5.0793    0.0000    0.0000 C   0  0  0  0  0  0  0  0  0  0  0  0
   -5.0793    0.0000    0.0000 C   0  0  0  0  0  0  0  0  0  0  0  0
   -5.7938    0.0000    0.0000 C   0  0  0  0  0  0  0  0  0  0  0  0
   -2.2214    0.0000    0.0000 N   0  0  0  0  0  0  0  0  0  0  0  0
   -1.4298    0.0000    0.0000 C   0  0  0  0  0  0  0  0  0  0  0  0
   -2.5995    0.0000    0.0000 C   0  0  0  0  0  0  0  0  0  0  0  0
   -3.3711    0.0000    0.0000 O   0  0  0  0  0  0  0  0  0  0  0  0
   -2.1534    0.0000    0.0000 C   0  0  0  0  0  0  0  0  0  0  0  0
   -2.5315    0.0000    0.0000 C   0  0  0  0  0  0  0  0  0  0  0  0
   -2.0854    0.0000    0.0000 C   0  0  0  0  0  0  0  0  0  0  0  0
   -3.3555    0.0000    0.0000 C   0  0  0  0  0  0  0  0  0  0  0  0
   -1.3294    0.0000    0.0000 N   0  0  0  0  0  0  0  0  0  0  0  0
   -0.7891    0.0000    0.0000 C   0  0  0  0  0  0  0  0  0  0  0  0
   -1.2510    0.0000    0.0000 C   0  0  0  0  0  0  0  0  0  0  0  0
   -1.7422    0.0000    0.0000 O   0  0  0  0  0  0  0  0  0  0  0  0
   -0.5005    0.0000    0.0000 C   0  0  0  0  0  0  0  0  0  0  0  0
   -0.4221    0.0000    0.0000 C   0  0  0  0  0  0  0  0  0  0  0  0
   -1.0941    0.0000    0.0000 C   0  0  0  0  0  0  0  0  0  0  0  0
   -1.0157    0.0000    0.0000 C   0  0  0  0  0  0  0  0  0  0  0  0
   -1.8446    0.0000    0.0000 C   0  0  0  0  0  0  0  0  0  0  0  0
    0.1715    0.0000    0.0000 N   0  0  0  0  0  0  0  0  0  0  0  0
    0.2889    0.0000    0.0000 C   0  0  0  0  0  0  0  0  0  0  0  0
    0.6815    0.0000    0.0000 C   0  0  0  0  0  0  0  0  0  0  0  0
    0.3749    0.0000    0.0000 O   0  0  0  0  0  0  0  0  0  0  0  0
    1.4981    0.0000    0.0000 C   0  0  0  0  0  0  0  0  0  0  0  0
    2.0081    0.0000    0.0000 C   0  0  0  0  0  0  0  0  0  0  0  0
    1.7015    0.0000    0.0000 C   0  0  0  0  0  0  0  0  0  0  0  0
    2.2114    0.0000    0.0000 C   0  0  0  0  0  0  0  0  0  0  0  0
    0.8849    0.0000    0.0000 C   0  0  0  0  0  0  0  0  0  0  0  0
    1.8047    0.0000    0.0000 N   0  0  0  0  0  0  0  0  0  0  0  0
    1.4620    0.0000    0.0000 C   0  0  0  0  0  0  0  0  0  0  0  0
    2.5844    0.0000    0.0000 C   0  0  0  0  0  0  0  0  0  0  0  0
    2.7405    0.0000    0.0000 O   0  0  0  0  0  0  0  0  0  0  0  0
    3.2078    0.0000    0.0000 C   0  0  0  0  0  0  0  0  0  0  0  0
    3.9875    0.0000    0.0000 C   0  0  0  0  0  0  0  0  0  0  0  0
    3.0517    0.0000    0.0000 N   0  0  0  0  0  0  0  0  0  0  0  0
    3.8535    0.0000    0.0000 C   0  0  0  0  0  0  0  0  0  0  0  0
    4.4228    0.0000    0.0000 O   0  0  0  0  0  0  0  0  0  0  0  0
    4.0859    0.0000    0.0000 C   0  0  0  0  0  0  0  0  0  0  0  0
    4.8876    0.0000    0.0000 C   0  0  0  0  0  0  0  0  0  0  0  0
    3.5166    0.0000    0.0000 N   0  0  0  0  0  0  0  0  0  0  0  0
    4.0859    0.0000    0.0000 C   0  0  0  0  0  0  0  0  0  0  0  0
    4.8876    0.0000    0.0000 O   0  0  0  0  0  0  0  0  0  0  0  0
    3.8535    0.0000    0.0000 C   0  0  0  0  0  0  0  0  0  0  0  0
    4.4228    0.0000    0.0000 C   0  0  0  0  0  0  0  0  0  0  0  0
    5.2245    0.0000    0.0000 C   0  0  0  0  0  0  0  0  0  0  0  0
    5.7938    0.0000    0.0000 C   0  0  0  0  0  0  0  0  0  0  0  0
    5.4569    0.0000    0.0000 C   0  0  0  0  0  0  0  0  0  0  0  0
    3.0517    0.0000    0.0000 N   0  0  0  0  0  0  0  0  0  0  0  0
    2.3577    0.0000    0.0000 C   0  0  0  0  0  0  0  0  0  0  0  0
    3.2078    0.0000    0.0000 C   0  0  0  0  0  0  0  0  0  0  0  0
    3.9875    0.0000    0.0000 O   0  0  0  0  0  0  0  0  0  0  0  0
    2.5844    0.0000    0.0000 C   0  0  0  0  0  0  0  0  0  0  0  0
    1.8047    0.0000    0.0000 N   0  0  0  0  0  0  0  0  0  0  0  0
    1.4981    0.0000    0.0000 C   0  0  0  0  0  0  0  0  0  0  0  0
    2.0081    0.0000    0.0000 O   0  0  0  0  0  0  0  0  0  0  0  0
    0.6815    0.0000    0.0000 C   0  0  0  0  0  0  0  0  0  0  0  0
    0.3749    0.0000    0.0000 C   0  0  0  0  0  0  0  0  0  0  0  0
    0.8849    0.0000    0.0000 C   0  0  0  0  0  0  0  0  0  0  0  0
    0.5782    0.0000    0.0000 C   0  0  0  0  0  0  0  0  0  0  0  0
    1.7015    0.0000    0.0000 C   0  0  0  0  0  0  0  0  0  0  0  0
    0.1715    0.0000    0.0000 N   0  0  0  0  0  0  0  0  0  0  0  0
    0.2889    0.0000    0.0000 C   0  0  0  0  0  0  0  0  0  0  0  0
   -0.5005    0.0000    0.0000 C   0  0  0  0  0  0  0  0  0  0  0  0
   -0.4221    0.0000    0.0000 O   0  0  0  0  0  0  0  0  0  0  0  0
   -1.2510    0.0000    0.0000 C   0  0  0  0  0  0  0  0  0  0  0  0
   -1.3294    0.0000    0.0000 N   0  0  0  0  0  0  0  0  0  0  0  0
   -0.7891    0.0000    0.0000 C   0  0  0  0  0  0  0  0  0  0  0  0
   -2.1534    0.0000    0.0000 C   0  0  0  0  0  0  0  0  0  0  0  0
   -2.5315    0.0000    0.0000 O   0  0  0  0  0  0  0  0  0  0  0  0
    2.7405    0.0000    0.0000 C   0  0  0  0  0  0  0  0  0  0  0  0
    2.3145    0.0000    0.0000 C   0  0  0  0  0  0  0  0  0  0  0  0
    3.5201    0.0000    0.0000 C   0  0  0  0  0  0  0  0  0  0  0  0
  1  2  1  0      
  2  3  1  0      
  3  4  1  0      
  4  5  1  0      
  5  6  2  0      
  5  7  1  0      
  7  8  1  0      
  8  9  1  0      
  8 10  1  0      
 10 11  1  0      
 10 12  1  0      
 12 13  1  0      
 13 14  2  0      
 14 15  1  4      
  7 16  1  0      
 16 17  1  0      
 16 18  1  0      
 18 19  2  0      
 18 20  1  0      
 20 21  1  0      
 21 22  1  0      
 21 23  1  0      
 20 24  1  0      
 24 25  1  0      
 24 26  1  0      
 26 27  2  0      
 26 28  1  0      
 28 29  1  0      
 29 30  1  0      
 30 31  1  0      
 30 32  1  0      
 28 33  1  0      
 33 34  1  0      
 33 35  1  0      
 35 36  2  0      
 35 37  1  0      
 37 38  1  0      
 38 39  1  0      
 39 40  1  0      
 39 41  1  0      
 37 42  1  0      
 42 43  1  0      
 42 44  1  0      
 44 45  2  0      
 44 46  1  0      
 46 47  1  0      
 46 48  1  0      
 48 49  1  0      
 49 50  2  0      
 49 51  1  0      
 51 52  1  0      
 51 53  1  0      
 53 54  1  0      
 54 55  2  0      
 54 56  1  0      
 56 57  1  0      
 57 58  1  0      
 58 59  1  0      
 58 60  1  0      
 56 61  1  0      
 61 62  1  0      
 61 63  1  0      
 63 64  2  0      
 63 65  1  0      
 65 66  1  0      
 66 67  1  0      
 67 68  2  0      
 67 69  1  0      
 69 70  1  0      
 70 71  1  0      
 71 72  1  0      
 71 73  1  0      
 69 74  1  0      
 74 75  1  0      
 74 76  1  0      
 76 77  2  0      
 76 78  1  0      
 78 79  1  0      
 79 80  1  0      
 79 81  1  0      
  3 81  1  0      
 81 82  2  0      
 65 83  1  0      
 83 84  1  0      
 83 85  1  0      
M  END
>  <Bioactivity>
Cyclosporin A is an immunosuppressive agent, binds to the cyclophilin and then inhibits calcineurin with IC50 of 7 nM, widely used in organ transplantation to prevent rejection.

>  <CAS>
59865-13-3

>  <Col>
9

>  <Formula>
C62H111N11O12

>  <ID>
T0945

>  <Index>
408

>  <MOLENAME>
Cyclosporin A

>  <MolWt>
1202.64

>  <Pathways>
Others

>  <Plate>
PLATE 006

>  <QR code>
1151480314

>  <Receptor>
Calcineurin; MRP1

>  <Reference>
1. Handschumacher RE, et al. Science, 1984, 226(4674), 544-547.

>  <Row>
A

>  <SMILES>
CCC1NC(=O)C(C(O)C(C)CC=CC)N(C)C(=O)C(C(C)C)N(C)C(=O)C(CC(C)C)N(C)C(=O)C(CC(C)C)N(C)C(=O)C(C)NC(=O)C(C)NC(=O)C(CC(C)C)N(C)C(=O)C(NC(=O)C(CC(C)C)N(C)C(=O)CN(C)C1=O)C(C)C

>  <Target>
Others

>  <Weight>
10.1mg

$$$$
Lab-1.sdf
  ChemDraw05232018482D

 63 69  0  0  0  0  0  0  0  0999 V2000
    6.1288    0.0000    0.0000 C   0  0  0  0  0  0  0  0  0  0  0  0
    5.4806    0.0000    0.0000 C   0  0  0  0  0  0  0  0  0  0  0  0
    4.7145    0.0000    0.0000 C   0  0  0  0  0  0  0  0  0  0  0  0
    4.5966    0.0000    0.0000 C   0  0  0  0  0  0  0  0  0  0  0  0
    4.0662    0.0000    0.0000 C   0  0  0  0  0  0  0  0  0  0  0  0
    3.3002    0.0000    0.0000 O   0  0  0  0  0  0  0  0  0  0  0  0
    2.6520    0.0000    0.0000 C   0  0  0  0  0  0  0  0  0  0  0  0
    2.0036    0.0000    0.0000 C   0  0  0  0  0  0  0  0  0  0  0  0
    1.2376    0.0000    0.0000 C   0  0  0  0  0  0  0  0  0  0  0  0
    1.1197    0.0000    0.0000 C   0  0  0  0  0  0  0  0  0  0  0  0
    1.7679    0.0000    0.0000 C   0  0  0  0  0  0  0  0  0  0  0  0
    1.6501    0.0000    0.0000 C   0  0  0  0  0  0  0  0  0  0  0  0
    0.8840    0.0000    0.0000 C   0  0  0  0  0  0  0  0  0  0  0  0
    0.7661    0.0000    0.0000 C   0  0  0  0  0  0  0  0  0  0  0  0
    1.4144    0.0000    0.0000 C   0  0  0  0  0  0  0  0  0  0  0  0
    0.0000    0.0000    0.0000 C   0  0  0  0  0  0  0  0  0  0  0  0
   -0.1179    0.0000    0.0000 O   0  0  0  0  0  0  0  0  0  0  0  0
   -0.8840    0.0000    0.0000 C   0  0  0  0  0  0  0  0  0  0  0  0
   -1.0018    0.0000    0.0000 C   0  0  0  0  0  0  0  0  0  0  0  0
   -1.7679    0.0000    0.0000 C   0  0  0  0  0  0  0  0  0  0  0  0
   -1.8857    0.0000    0.0000 O   0  0  0  0  0  0  0  0  0  0  0  0
   -2.6519    0.0000    0.0000 C   0  0  0  0  0  0  0  0  0  0  0  0
   -2.4161    0.0000    0.0000 C   0  0  0  0  0  0  0  0  0  0  0  0
   -3.1823    0.0000    0.0000 O   0  0  0  0  0  0  0  0  0  0  0  0
   -3.8305    0.0000    0.0000 C   0  0  0  0  0  0  0  0  0  0  0  0
   -4.5966    0.0000    0.0000 C   0  0  0  0  0  0  0  0  0  0  0  0
   -5.2449    0.0000    0.0000 C   0  0  0  0  0  0  0  0  0  0  0  0
   -6.0109    0.0000    0.0000 O   0  0  0  0  0  0  0  0  0  0  0  0
   -6.1288    0.0000    0.0000 C   0  0  0  0  0  0  0  0  0  0  0  0
   -5.1269    0.0000    0.0000 C   0  0  0  0  0  0  0  0  0  0  0  0
   -5.7752    0.0000    0.0000 O   0  0  0  0  0  0  0  0  0  0  0  0
   -4.3608    0.0000    0.0000 C   0  0  0  0  0  0  0  0  0  0  0  0
   -4.2430    0.0000    0.0000 C   0  0  0  0  0  0  0  0  0  0  0  0
   -3.7126    0.0000    0.0000 O   0  0  0  0  0  0  0  0  0  0  0  0
   -2.2982    0.0000    0.0000 C   0  0  0  0  0  0  0  0  0  0  0  0
   -2.9466    0.0000    0.0000 C   0  0  0  0  0  0  0  0  0  0  0  0
   -1.5322    0.0000    0.0000 O   0  0  0  0  0  0  0  0  0  0  0  0
   -0.6482    0.0000    0.0000 C   0  0  0  0  0  0  0  0  0  0  0  0
   -1.4143    0.0000    0.0000 C   0  0  0  0  0  0  0  0  0  0  0  0
   -0.5304    0.0000    0.0000 C   0  0  0  0  0  0  0  0  0  0  0  0
   -1.1786    0.0000    0.0000 C   0  0  0  0  0  0  0  0  0  0  0  0
   -1.0607    0.0000    0.0000 C   0  0  0  0  0  0  0  0  0  0  0  0
   -1.7090    0.0000    0.0000 C   0  0  0  0  0  0  0  0  0  0  0  0
   -2.4750    0.0000    0.0000 C   0  0  0  0  0  0  0  0  0  0  0  0
   -3.1233    0.0000    0.0000 O   0  0  0  0  0  0  0  0  0  0  0  0
   -3.0055    0.0000    0.0000 C   0  0  0  0  0  0  0  0  0  0  0  0
   -2.2393    0.0000    0.0000 C   0  0  0  0  0  0  0  0  0  0  0  0
   -2.1215    0.0000    0.0000 C   0  0  0  0  0  0  0  0  0  0  0  0
   -2.7698    0.0000    0.0000 O   0  0  0  0  0  0  0  0  0  0  0  0
   -1.3554    0.0000    0.0000 C   0  0  0  0  0  0  0  0  0  0  0  0
   -1.2375    0.0000    0.0000 C   0  0  0  0  0  0  0  0  0  0  0  0
   -0.7072    0.0000    0.0000 C   0  0  0  0  0  0  0  0  0  0  0  0
   -0.8250    0.0000    0.0000 C   0  0  0  0  0  0  0  0  0  0  0  0
   -0.1768    0.0000    0.0000 C   0  0  0  0  0  0  0  0  0  0  0  0
   -0.2947    0.0000    0.0000 O   0  0  0  0  0  0  0  0  0  0  0  0
    0.5894    0.0000    0.0000 O   0  0  0  0  0  0  0  0  0  0  0  0
   -1.5911    0.0000    0.0000 C   0  0  0  0  0  0  0  0  0  0  0  0
   -2.3572    0.0000    0.0000 O   0  0  0  0  0  0  0  0  0  0  0  0
    2.5340    0.0000    0.0000 O   0  0  0  0  0  0  0  0  0  0  0  0
    2.7698    0.0000    0.0000 C   0  0  0  0  0  0  0  0  0  0  0  0
    3.5359    0.0000    0.0000 C   0  0  0  0  0  0  0  0  0  0  0  0
    4.1841    0.0000    0.0000 C   0  0  0  0  0  0  0  0  0  0  0  0
    4.9502    0.0000    0.0000 C   0  0  0  0  0  0  0  0  0  0  0  0
  1  2  1  0      
  2  3  1  0      
  3  4  1  0      
  3  5  1  0      
  5  6  1  0      
  6  7  1  0      
  7  8  1  0      
  8  9  1  0      
  9 10  1  0      
 10 11  1  0      
 11 12  1  0      
 13 12  1  4      
 13 14  2  0      
 14 15  1  0      
 14 16  1  0      
 16 17  1  0      
 17 18  1  0      
 18 19  1  0      
 19 20  1  0      
 20 21  1  0      
 21 22  1  0      
 20 23  1  0      
 23 24  1  0      
 24 25  1  0      
 25 26  1  0      
 26 27  1  0      
 27 28  1  0      
 28 29  1  0      
 27 30  1  0      
 30 31  1  0      
 30 32  1  0      
 32 33  1  0      
 32 34  1  0      
 25 34  1  0      
 23 35  1  0      
 35 36  1  0      
 35 37  1  0      
 18 37  1  0      
 16 38  1  0      
 38 39  1  0      
 40 38  1  4      
 40 41  2  0      
 42 41  1  4      
 42 43  2  0      
 43 44  1  0      
 44 45  1  0      
 45 46  1  0      
 46 47  1  0      
 47 48  1  0      
 48 49  1  0      
 48 50  1  0      
 50 51  1  0      
 50 52  2  0      
 52 53  1  0      
 53 54  1  0      
 54 55  2  0      
 54 56  1  0      
  9 56  1  0      
 53 57  1  0      
 43 57  1  0      
 47 57  1  0      
 57 58  1  0      
 11 59  1  0      
  7 59  1  0      
  7 60  1  0      
 60 61  2  0      
 61 62  1  0      
  5 62  1  0      
 62 63  1  0      
M  END
>  <Bioactivity>
Avermectin B1 (Abamectin) is a widely used insecticide and anthelmintic.

>  <CAS>
71751-41-2

>  <Col>
10

>  <Formula>
C48H72O14

>  <ID>
T0956

>  <Index>
409

>  <MOLENAME>
Abamectin

>  <MolWt>
873.09

>  <Pathways>
Microbiology & Virology

>  <Plate>
PLATE 006

>  <QR code>
1151480313

>  <Receptor>
Antiparasitic

>  <Reference>
1. Mogg TD, et al. Aust Vet J. 1990 Nov;67(11):399-401. 

>  <Row>
A

>  <SMILES>
CCC(C)C1OC2(CC3CC(CC=C(C)C(OC4CC(OC)C(OC5CC(OC)C(O)C(C)O5)C(C)O4)C(C)C=CC=C4COCC5C(O)C(C)=CC(C(=O)O3)C45O)O2)C=CC1C

>  <Target>
Antiparasitic

>  <Weight>
10.2mg

$$$$
Lab-1.sdf
  ChemDraw05232018482D

 12 12  0  0  0  0  0  0  0  0999 V2000
   -0.4372    0.0000    0.0000 O   0  0  0  0  0  0  0  0  0  0  0  0
   -0.4372    0.0000    0.0000 C   0  0  0  0  0  0  0  0  0  0  0  0
    0.2773    0.0000    0.0000 C   0  0  0  0  0  0  0  0  0  0  0  0
    0.9917    0.0000    0.0000 O   0  0  0  0  0  0  0  0  0  0  0  0
    0.2773    0.0000    0.0000 C   0  0  0  0  0  0  0  0  0  0  0  0
    0.9447    0.0000    0.0000 O   0  0  0  0  0  0  0  0  0  0  0  0
    0.6898    0.0000    0.0000 C   0  0  0  0  0  0  0  0  0  0  0  0
    1.1747    0.0000    0.0000 O   0  0  0  0  0  0  0  0  0  0  0  0
   -0.1352    0.0000    0.0000 C   0  0  0  0  0  0  0  0  0  0  0  0
   -0.6202    0.0000    0.0000 O   0  0  0  0  0  0  0  0  0  0  0  0
   -0.3901    0.0000    0.0000 C   0  0  0  0  0  0  0  0  0  0  0  0
   -1.1747    0.0000    0.0000 O   0  0  0  0  0  0  0  0  0  0  0  0
  1  2  1  0      
  2  3  1  0      
  3  4  1  0      
  3  5  1  0      
  5  6  1  0      
  6  7  1  0      
  7  8  2  0      
  7  9  1  0      
  9 10  1  0      
  9 11  2  0      
  5 11  1  0      
 11 12  1  0      
M  END
>  <Bioactivity>
Vitamin C is a water-soluble vitamin indicated for the prevention and treatment of scurvy.

>  <CAS>
50-81-7

>  <Col>
11

>  <Formula>
C6H8O6

>  <ID>
T0928

>  <Index>
410

>  <MOLENAME>
L(+)-Ascorbic acid

>  <MolWt>
176.12

>  <Pathways>
Vitamin

>  <Plate>
PLATE 006

>  <QR code>
1151480312

>  <Receptor>
VC

>  <Reference>
1. Witenberg B, et al. Biochem Pharmacol, 1999, 57(7), 823-832.

>  <Row>
A

>  <SMILES>
OCC(O)C1OC(=O)C(O)=C1O

>  <Target>
VC

>  <Weight>
10.3mg

$$$$
Lab-1.sdf
  ChemDraw05232018482D

  9  9  0  0  0  0  0  0  0  0999 V2000
   -0.7144    0.0000    0.0000 N   0  0  0  0  0  0  0  0  0  0  0  0
    0.0001    0.0000    0.0000 C   0  0  0  0  0  0  0  0  0  0  0  0
    0.7144    0.0000    0.0000 O   0  0  0  0  0  0  0  0  0  0  0  0
    0.0001    0.0000    0.0000 C   0  0  0  0  0  0  0  0  0  0  0  0
    0.7144    0.0000    0.0000 C   0  0  0  0  0  0  0  0  0  0  0  0
    0.7144    0.0000    0.0000 N   0  0  0  0  0  0  0  0  0  0  0  0
    0.0001    0.0000    0.0000 C   0  0  0  0  0  0  0  0  0  0  0  0
   -0.7144    0.0000    0.0000 C   0  0  0  0  0  0  0  0  0  0  0  0
   -0.7144    0.0000    0.0000 C   0  0  0  0  0  0  0  0  0  0  0  0
  1  2  1  0      
  2  3  2  0      
  2  4  1  0      
  4  5  2  0      
  5  6  1  0      
  6  7  2  0      
  7  8  1  0      
  8  9  2  0      
  4  9  1  0      
M  END
>  <Bioactivity>
Nicotinamide (Vitamin B3), a water-soluble vitamin, is an active component of coenzymes NAD and NADP, and also act as an activator of sirtuins.

>  <CAS>
98-92-0

>  <Col>
2

>  <Formula>
C6H6N2O

>  <ID>
T0934

>  <Index>
411

>  <MOLENAME>
Nicotinamide

>  <MolWt>
122.12

>  <Pathways>
Vitamin

>  <Plate>
PLATE 006

>  <QR code>
1151480300

>  <Receptor>
VB3

>  <Reference>
1. Bitterman KJ, et al. J Biol Chem, 2002, 277(47), 45099-45107.

>  <Row>
B

>  <SMILES>
NC(=O)C1=CN=CC=C1

>  <Target>
VB

>  <Weight>
10.2mg

$$$$
Lab-1.sdf
  ChemDraw05232018482D

 13 12  0  0  0  0  0  0  0  0999 V2000
   -3.5722    0.0000    0.0000 O   0  0  0  0  0  0  0  0  0  0  0  0
   -2.8578    0.0000    0.0000 C   0  0  0  0  0  0  0  0  0  0  0  0
   -2.8578    0.0000    0.0000 O   0  0  0  0  0  0  0  0  0  0  0  0
   -2.1433    0.0000    0.0000 C   0  0  0  0  0  0  0  0  0  0  0  0
   -1.4289    0.0000    0.0000 C   0  0  0  0  0  0  0  0  0  0  0  0
   -0.7144    0.0000    0.0000 C   0  0  0  0  0  0  0  0  0  0  0  0
    0.0001    0.0000    0.0000 C   0  0  0  0  0  0  0  0  0  0  0  0
    0.7145    0.0000    0.0000 C   0  0  0  0  0  0  0  0  0  0  0  0
    1.4289    0.0000    0.0000 C   0  0  0  0  0  0  0  0  0  0  0  0
    2.1434    0.0000    0.0000 C   0  0  0  0  0  0  0  0  0  0  0  0
    2.8579    0.0000    0.0000 C   0  0  0  0  0  0  0  0  0  0  0  0
    3.5722    0.0000    0.0000 O   0  0  0  0  0  0  0  0  0  0  0  0
    2.8579    0.0000    0.0000 O   0  0  0  0  0  0  0  0  0  0  0  0
  1  2  1  0      
  2  3  2  0      
  2  4  1  0      
  4  5  1  0      
  5  6  1  0      
  6  7  1  0      
  7  8  1  0      
  8  9  1  0      
  9 10  1  0      
 10 11  1  0      
 11 12  1  0      
 11 13  2  0      
M  END
>  <Bioactivity>
Azelaic acid is a saturated dicarboxylic acid found naturally in wheat, rye, and barley. It is a natural substance that is produced by Malassezia furfur (also known as Pityrosporum ovale), a yeast tha
t lives on normal skin. It is effective against a number of skin conditions, such as mild to moderate acne, when applied topically in a cream formulation of 20%. It works in part by stopping the growt
h of skin bacteria that cause acne, and by keeping skin pores clear. Azelaic acid's antimicrobial action may be attributable to inhibition of microbial cellular protein synthesis.  

>  <CAS>
123-99-9

>  <Col>
3

>  <Formula>
C9H16O4

>  <ID>
T0926

>  <Index>
412

>  <MOLENAME>
Azelaic acid

>  <MolWt>
188.22

>  <Pathways>
DNA Damage/DNA Repair; Enzyme

>  <Plate>
PLATE 006

>  <QR code>
1151480301

>  <Receptor>
DNA polymerase I; ThxR

>  <Reference>
1. Stamatiadis D, et al. Br J Dermatol. 1988 Nov;119(5):627-32. 

>  <Row>
B

>  <SMILES>
OC(=O)CCCCCCCC(O)=O

>  <Target>
DNA synthesis inhibitor; ThxR inhibitor

>  <Weight>
10.1mg

$$$$
Lab-1.sdf
  ChemDraw05232018482D

 27 29  0  0  0  0  0  0  0  0999 V2000
   -0.7145    0.0000    0.0000 C   0  0  0  0  0  0  0  0  0  0  0  0
   -0.7145    0.0000    0.0000 C   0  0  0  0  0  0  0  0  0  0  0  0
   -1.4289    0.0000    0.0000 C   0  0  0  0  0  0  0  0  0  0  0  0
   -1.4289    0.0000    0.0000 C   0  0  0  0  0  0  0  0  0  0  0  0
   -0.7145    0.0000    0.0000 C   0  0  0  0  0  0  0  0  0  0  0  0
   -0.0000    0.0000    0.0000 C   0  0  0  0  0  0  0  0  0  0  0  0
   -0.0000    0.0000    0.0000 C   0  0  0  0  0  0  0  0  0  0  0  0
    0.7145    0.0000    0.0000 C   0  0  0  0  0  0  0  0  0  0  0  0
   -0.7145    0.0000    0.0000 N   0  0  0  0  0  0  0  0  0  0  0  0
   -0.0000    0.0000    0.0000 C   0  0  0  0  0  0  0  0  0  0  0  0
    0.7145    0.0000    0.0000 C   0  0  0  0  0  0  0  0  0  0  0  0
    0.7145    0.0000    0.0000 O   0  0  0  0  0  0  0  0  0  0  0  0
    1.4289    0.0000    0.0000 C   0  0  0  0  0  0  0  0  0  0  0  0
    1.4289    0.0000    0.0000 O   0  0  0  0  0  0  0  0  0  0  0  0
    2.1434    0.0000    0.0000 C   0  0  0  0  0  0  0  0  0  0  0  0
    2.1434    0.0000    0.0000 O   0  0  0  0  0  0  0  0  0  0  0  0
    2.8579    0.0000    0.0000 C   0  0  0  0  0  0  0  0  0  0  0  0
    3.5724    0.0000    0.0000 O   0  0  0  0  0  0  0  0  0  0  0  0
   -1.4289    0.0000    0.0000 C   0  0  0  0  0  0  0  0  0  0  0  0
   -1.4289    0.0000    0.0000 N   0  0  0  0  0  0  0  0  0  0  0  0
   -2.1434    0.0000    0.0000 C   0  0  0  0  0  0  0  0  0  0  0  0
   -2.1434    0.0000    0.0000 O   0  0  0  0  0  0  0  0  0  0  0  0
   -2.8579    0.0000    0.0000 N   0  0  0  0  0  0  0  0  0  0  0  0
   -2.8579    0.0000    0.0000 C   0  0  0  0  0  0  0  0  0  0  0  0
   -3.5724    0.0000    0.0000 O   0  0  0  0  0  0  0  0  0  0  0  0
   -2.1434    0.0000    0.0000 C   0  0  0  0  0  0  0  0  0  0  0  0
   -2.1434    0.0000    0.0000 N   0  0  0  0  0  0  0  0  0  0  0  0
  1  2  1  0      
  2  3  2  0      
  3  4  1  0      
  4  5  2  0      
  5  6  1  0      
  6  7  2  0      
  2  7  1  0      
  7  8  1  0      
  5  9  1  0      
  9 10  1  0      
 10 11  1  0      
 11 12  1  0      
 11 13  1  0      
 13 14  1  0      
 13 15  1  0      
 15 16  1  0      
 15 17  1  0      
 17 18  1  0      
  9 19  1  0      
 19 20  2  0      
 20 21  1  0      
 21 22  2  0      
 21 23  1  0      
 23 24  1  0      
 24 25  2  0      
 24 26  1  0      
 19 26  1  0      
 26 27  2  0      
  4 27  1  0      
M  END
>  <Bioactivity>
Nutritional factor found in milk, eggs, malted barley, liver, kidney, heart, and leafy vegetables. The richest natural source is yeast. It occurs in the free form only in the retina of the eye, in whe
y, and in urine; its principal forms in tissues and cells are as FLAVIN MONONUCLEOTIDE and FLAVIN-ADENINE DINUCLEOTIDE. 

>  <CAS>
83-88-5

>  <Col>
4

>  <Formula>
C17H20N4O6

>  <ID>
T0937

>  <Index>
413

>  <MOLENAME>
Riboflavin

>  <MolWt>
376.37

>  <Pathways>
Vitamin

>  <Plate>
PLATE 006

>  <QR code>
1151480302

>  <Receptor>
VB2

>  <Reference>
1. Solovieva IM, et al. FEMS Microbiol Lett. 2005 Feb 1;243(1):51-8.

>  <Row>
B

>  <SMILES>
CC1=CC2=C(C=C1C)N(CC(O)C(O)C(O)CO)C1=NC(=O)NC(=O)C1=N2

>  <Target>
VB

>  <Weight>
10.3mg

$$$$
Lab-1.sdf
  ChemDraw05232018482D

 24 26  0  0  0  0  0  0  0  0999 V2000
    1.8723    0.0000    0.0000 C   0  0  0  0  0  0  0  0  0  0  0  0
    1.1578    0.0000    0.0000 O   0  0  0  0  0  0  0  0  0  0  0  0
    1.1578    0.0000    0.0000 C   0  0  0  0  0  0  0  0  0  0  0  0
    1.8723    0.0000    0.0000 C   0  0  0  0  0  0  0  0  0  0  0  0
    1.8723    0.0000    0.0000 C   0  0  0  0  0  0  0  0  0  0  0  0
    2.5867    0.0000    0.0000 O   0  0  0  0  0  0  0  0  0  0  0  0
    3.3012    0.0000    0.0000 C   0  0  0  0  0  0  0  0  0  0  0  0
    1.1578    0.0000    0.0000 C   0  0  0  0  0  0  0  0  0  0  0  0
    1.1578    0.0000    0.0000 Cl  0  0  0  0  0  0  0  0  0  0  0  0
    0.4433    0.0000    0.0000 C   0  0  0  0  0  0  0  0  0  0  0  0
    0.4433    0.0000    0.0000 C   0  0  0  0  0  0  0  0  0  0  0  0
   -0.3413    0.0000    0.0000 C   0  0  0  0  0  0  0  0  0  0  0  0
   -0.3413    0.0000    0.0000 O   0  0  0  0  0  0  0  0  0  0  0  0
   -0.8262    0.0000    0.0000 C   0  0  0  0  0  0  0  0  0  0  0  0
   -0.3413    0.0000    0.0000 O   0  0  0  0  0  0  0  0  0  0  0  0
   -1.2387    0.0000    0.0000 C   0  0  0  0  0  0  0  0  0  0  0  0
   -0.8262    0.0000    0.0000 C   0  0  0  0  0  0  0  0  0  0  0  0
   -2.0637    0.0000    0.0000 C   0  0  0  0  0  0  0  0  0  0  0  0
   -2.4762    0.0000    0.0000 C   0  0  0  0  0  0  0  0  0  0  0  0
   -3.3012    0.0000    0.0000 O   0  0  0  0  0  0  0  0  0  0  0  0
   -2.0637    0.0000    0.0000 C   0  0  0  0  0  0  0  0  0  0  0  0
   -1.2387    0.0000    0.0000 C   0  0  0  0  0  0  0  0  0  0  0  0
   -0.8262    0.0000    0.0000 O   0  0  0  0  0  0  0  0  0  0  0  0
   -1.2387    0.0000    0.0000 C   0  0  0  0  0  0  0  0  0  0  0  0
  1  2  1  0      
  2  3  1  0      
  3  4  2  0      
  4  5  1  0      
  5  6  1  0      
  6  7  1  0      
  5  8  2  0      
  8  9  1  0      
  8 10  1  0      
 10 11  2  0      
  3 11  1  0      
 11 12  1  0      
 12 13  2  0      
 12 14  1  0      
 14 15  1  0      
 10 15  1  0      
 14 16  1  0      
 16 17  1  0      
 16 18  1  0      
 18 19  1  0      
 19 20  2  0      
 19 21  1  0      
 21 22  2  0      
 14 22  1  0      
 22 23  1  0      
 23 24  1  0      
M  END
>  <Bioactivity>
Griseofulvin, a production from some strains of the mold Penicillium griseofulvumam, is able to inhibit cell mitosis by interfering with microtubule function.

>  <CAS>
126-07-8

>  <Col>
5

>  <Formula>
C17H17ClO6

>  <ID>
T1382

>  <Index>
414

>  <MOLENAME>
Griseofulvin

>  <MolWt>
352.77

>  <Pathways>
Cell Cycle/Checkpoint

>  <Plate>
PLATE 006

>  <QR code>
1151480303

>  <Receptor>
Tubulin chain

>  <Reference>
1. De Carli L, et al. Mutat Res, 1988, 195(2), 91-126.

>  <Row>
B

>  <SMILES>
COC1=CC(OC)=C(Cl)C2=C1C(=O)C1(O2)C(C)CC(=O)C=C1OC

>  <Target>
Microtubule Associated inhibitor

>  <Weight>
10.2mg

$$$$
Lab-1.sdf
  ChemDraw05232018482D

 14 13  0  0  0  0  0  0  0  0999 V2000
   -1.3737    0.0000    0.0000 C   0  0  0  0  0  0  0  0  0  0  0  0
   -1.7861    0.0000    0.0000 C   0  0  0  0  0  0  0  0  0  0  0  0
   -2.1986    0.0000    0.0000 C   0  0  0  0  0  0  0  0  0  0  0  0
   -2.5006    0.0000    0.0000 C   0  0  0  0  0  0  0  0  0  0  0  0
   -3.2150    0.0000    0.0000 O   0  0  0  0  0  0  0  0  0  0  0  0
   -1.0717    0.0000    0.0000 C   0  0  0  0  0  0  0  0  0  0  0  0
   -1.0717    0.0000    0.0000 O   0  0  0  0  0  0  0  0  0  0  0  0
   -0.3572    0.0000    0.0000 C   0  0  0  0  0  0  0  0  0  0  0  0
   -0.3572    0.0000    0.0000 O   0  0  0  0  0  0  0  0  0  0  0  0
    0.3572    0.0000    0.0000 N   0  0  0  0  0  0  0  0  0  0  0  0
    1.0717    0.0000    0.0000 C   0  0  0  0  0  0  0  0  0  0  0  0
    1.7861    0.0000    0.0000 C   0  0  0  0  0  0  0  0  0  0  0  0
    2.5005    0.0000    0.0000 C   0  0  0  0  0  0  0  0  0  0  0  0
    3.2150    0.0000    0.0000 O   0  0  0  0  0  0  0  0  0  0  0  0
  1  2  1  0      
  2  3  1  0      
  2  4  1  0      
  4  5  1  0      
  2  6  1  0      
  6  7  1  0      
  6  8  1  0      
  8  9  2  0      
  8 10  1  0      
 10 11  1  0      
 11 12  1  0      
 12 13  1  0      
 13 14  1  0      
M  END
>  <Bioactivity>
Panthenol (pantothenol) is the alcohol analog of pantothenic acid (vitamin B5), and is thus a provitamin of B5. In organisms it is quickly oxidized to pantothenate. Panthenol is a highly viscous trans
parent liquid at room temperature, but salts of pantothenic acid (for example sodium pantothenate) are powders (typically white).

>  <CAS>
16485-10-2

>  <Col>
6

>  <Formula>
C9H19NO4

>  <ID>
T1390

>  <Index>
415

>  <MOLENAME>
Panthenol

>  <MolWt>
205.26

>  <Pathways>
Vitamin

>  <Plate>
PLATE 006

>  <QR code>
1151480304

>  <Receptor>
Analog of VB5

>  <Reference>
1. Bissett DL. Clin Dermatol. 2009 Sep-Oct;27(5):435-45. 

>  <Row>
B

>  <SMILES>
CC(C)(CO)C(O)C(=O)NCCCO

>  <Target>
VB

>  <Weight>
10.2mg

$$$$
Lab-1.sdf
  ChemDraw05232018482D

 13 14  0  0  0  0  0  0  0  0999 V2000
   -0.7145    0.0000    0.0000 C   0  0  0  0  0  0  0  0  0  0  0  0
   -0.7145    0.0000    0.0000 C   0  0  0  0  0  0  0  0  0  0  0  0
   -1.4290    0.0000    0.0000 C   0  0  0  0  0  0  0  0  0  0  0  0
   -1.4290    0.0000    0.0000 C   0  0  0  0  0  0  0  0  0  0  0  0
   -2.1433    0.0000    0.0000 O   0  0  0  0  0  0  0  0  0  0  0  0
   -0.7145    0.0000    0.0000 O   0  0  0  0  0  0  0  0  0  0  0  0
   -0.0000    0.0000    0.0000 C   0  0  0  0  0  0  0  0  0  0  0  0
   -0.0000    0.0000    0.0000 C   0  0  0  0  0  0  0  0  0  0  0  0
    0.7144    0.0000    0.0000 C   0  0  0  0  0  0  0  0  0  0  0  0
    1.4289    0.0000    0.0000 C   0  0  0  0  0  0  0  0  0  0  0  0
    1.4289    0.0000    0.0000 C   0  0  0  0  0  0  0  0  0  0  0  0
    2.1433    0.0000    0.0000 O   0  0  0  0  0  0  0  0  0  0  0  0
    0.7144    0.0000    0.0000 C   0  0  0  0  0  0  0  0  0  0  0  0
  1  2  1  0      
  2  3  2  0      
  3  4  1  0      
  4  5  2  0      
  4  6  1  0      
  6  7  1  0      
  7  8  2  0      
  2  8  1  0      
  8  9  1  0      
  9 10  2  0      
 10 11  1  0      
 11 12  1  0      
 11 13  2  0      
  7 13  1  0      
M  END
>  <Bioactivity>
A coumarin derivative possessing properties as a spasmolytic, choleretic and light-protective agent. It is also used in ANALYTICAL CHEMISTRY TECHNIQUES for the determination of NITRIC ACID. 

>  <CAS>
90-33-5

>  <Col>
7

>  <Formula>
C10H8O3

>  <ID>
T1391

>  <Index>
416

>  <MOLENAME>
4-Methylumbelliferone (4-MU)

>  <MolWt>
176.17

>  <Pathways>
Enzyme

>  <Plate>
PLATE 006

>  <QR code>
1151480305

>  <Receptor>
ASST

>  <Reference>
1. Berman HM, et al. Nucleic Acids Res. 2000 Jan 1;28(1):235-42. 

>  <Row>
B

>  <SMILES>
CC1=CC(=O)OC2=C1C=CC(O)=C2

>  <Target>
HAS inhibitor

>  <Weight>
10.3mg

$$$$
Lab-1.sdf
  ChemDraw05232018482D

 23 24  0  0  0  0  0  0  0  0999 V2000
    2.3189    0.0000    0.0000 O   0  0  0  0  0  0  0  0  0  0  0  0
    1.5119    0.0000    0.0000 C   0  0  0  0  0  0  0  0  0  0  0  0
    1.2570    0.0000    0.0000 C   0  0  0  0  0  0  0  0  0  0  0  0
    0.4500    0.0000    0.0000 O   0  0  0  0  0  0  0  0  0  0  0  0
    0.1951    0.0000    0.0000 C   0  0  0  0  0  0  0  0  0  0  0  0
   -0.6119    0.0000    0.0000 O   0  0  0  0  0  0  0  0  0  0  0  0
   -1.1639    0.0000    0.0000 C   0  0  0  0  0  0  0  0  0  0  0  0
   -1.7159    0.0000    0.0000 C   0  0  0  0  0  0  0  0  0  0  0  0
   -2.5230    0.0000    0.0000 Cl  0  0  0  0  0  0  0  0  0  0  0  0
   -0.4965    0.0000    0.0000 O   0  0  0  0  0  0  0  0  0  0  0  0
   -0.7514    0.0000    0.0000 C   0  0  0  0  0  0  0  0  0  0  0  0
   -0.2665    0.0000    0.0000 C   0  0  0  0  0  0  0  0  0  0  0  0
    0.5540    0.0000    0.0000 Cl  0  0  0  0  0  0  0  0  0  0  0  0
   -1.5764    0.0000    0.0000 C   0  0  0  0  0  0  0  0  0  0  0  0
   -2.0613    0.0000    0.0000 O   0  0  0  0  0  0  0  0  0  0  0  0
   -1.8313    0.0000    0.0000 C   0  0  0  0  0  0  0  0  0  0  0  0
   -2.6161    0.0000    0.0000 O   0  0  0  0  0  0  0  0  0  0  0  0
    0.7471    0.0000    0.0000 C   0  0  0  0  0  0  0  0  0  0  0  0
    0.4922    0.0000    0.0000 O   0  0  0  0  0  0  0  0  0  0  0  0
    1.5541    0.0000    0.0000 C   0  0  0  0  0  0  0  0  0  0  0  0
    2.1061    0.0000    0.0000 O   0  0  0  0  0  0  0  0  0  0  0  0
    1.8090    0.0000    0.0000 C   0  0  0  0  0  0  0  0  0  0  0  0
    2.6161    0.0000    0.0000 Cl  0  0  0  0  0  0  0  0  0  0  0  0
  1  2  1  0      
  2  3  1  0      
  3  4  1  0      
  4  5  1  0      
  5  6  1  0      
  6  7  1  0      
  7  8  1  0      
  8  9  1  0      
  7 10  1  0      
 10 11  1  0      
 11 12  1  0      
 12 13  1  0      
 11 14  1  0      
 14 15  1  0      
 14 16  1  0      
  7 16  1  0      
 16 17  1  0      
  5 18  1  0      
 18 19  1  0      
 18 20  1  0      
 20 21  1  0      
 20 22  1  0      
  3 22  1  0      
 22 23  1  0      
M  END
>  <Bioactivity>
Sucralose is an artificial and noncaloric sweetener, not broken down by the body, so it is noncaloric.

>  <CAS>
56038-13-2

>  <Col>
8

>  <Formula>
C12H19Cl3O8

>  <ID>
T1399

>  <Index>
417

>  <MOLENAME>
Sucralose

>  <MolWt>
397.63

>  <Pathways>
Others

>  <Plate>
PLATE 006

>  <QR code>
1151480306

>  <Receptor>
Others

>  <Reference>
1. Stoddard KI, Huggett DB. Bull Environ Contam Toxicol. 2014 Oct;93(4):383-7.

>  <Row>
B

>  <SMILES>
OCC1OC(OC2(CCl)OC(CCl)C(O)C2O)C(O)C(O)C1Cl

>  <Target>
Others

>  <Weight>
10.2mg

$$$$
Lab-1.sdf
  ChemDraw05232018482D

 11 11  0  0  0  0  0  0  0  0999 V2000
   -0.3572    0.0000    0.0000 C   0  0  0  0  0  0  0  0  0  0  0  0
    0.3573    0.0000    0.0000 C   0  0  0  0  0  0  0  0  0  0  0  0
    1.0717    0.0000    0.0000 C   0  0  0  0  0  0  0  0  0  0  0  0
    0.3573    0.0000    0.0000 C   0  0  0  0  0  0  0  0  0  0  0  0
    1.0717    0.0000    0.0000 C   0  0  0  0  0  0  0  0  0  0  0  0
    1.0717    0.0000    0.0000 C   0  0  0  0  0  0  0  0  0  0  0  0
    0.3573    0.0000    0.0000 C   0  0  0  0  0  0  0  0  0  0  0  0
    0.3573    0.0000    0.0000 C   0  0  0  0  0  0  0  0  0  0  0  0
   -0.3572    0.0000    0.0000 C   0  0  0  0  0  0  0  0  0  0  0  0
   -0.3572    0.0000    0.0000 C   0  0  0  0  0  0  0  0  0  0  0  0
   -1.0717    0.0000    0.0000 O   0  0  0  0  0  0  0  0  0  0  0  0
  1  2  1  0      
  2  3  1  0      
  2  4  1  0      
  4  5  1  0      
  5  6  1  0      
  6  7  1  0      
  7  8  1  0      
  7  9  1  0      
  9 10  1  0      
  4 10  1  0      
 10 11  1  0      
M  END
>  <Bioactivity>
Menthol is a covalent organic compound made synthetically or obtained from peppermint or other mint oils. It is a waxy, crystalline substance, clear or white in color, which is solid at room temperatu
re and melts slightly above. The main form of menthol occurring in nature is (-)-menthol, which is assigned the (1R,2S,5R) configuration. Menthol has local anesthetic and counterirritant qualities, an
d it is widely used to relieve minor throat irritation. .

>  <CAS>
2216-51-5

>  <Col>
9

>  <Formula>
C10H20O

>  <ID>
T1407

>  <Index>
418

>  <MOLENAME>
L-Menthol

>  <MolWt>
156.27

>  <Pathways>
Neuroscience

>  <Plate>
PLATE 006

>  <QR code>
1151480307

>  <Receptor>
Transient receptor potential cation channel ; Kappa-type opioid receptor

>  <Reference>
1. Macpherson LJ, et al. Mol Cell Neurosci. 2006 Aug;32(4):335-43. 

>  <Row>
B

>  <SMILES>
CC(C)C1CCC(C)CC1O

>  <Target>
Opioid Receptor

>  <Weight>
10.3mg

$$$$
Lab-1.sdf
  ChemDraw05232018482D

 54 54  0  0  0  0  0  0  0  0999 V2000
   -0.2187    0.0000    0.0000 O   0  0  0  0  0  0  0  0  0  0  0  0
    2.1384    0.0000    0.0000 O   0  0  0  0  0  0  0  0  0  0  0  0
    0.1904    0.0000    0.0000 C   0  0  0  0  0  0  0  0  0  0  0  0
   -0.5662    0.0000    0.0000 C   0  0  0  0  0  0  0  0  0  0  0  0
   -0.6597    0.0000    0.0000 C   0  0  0  0  0  0  0  0  0  0  0  0
    0.1432    0.0000    0.0000 O   0  0  0  0  0  0  0  0  0  0  0  0
    0.5711    0.0000    0.0000 C   0  0  0  0  0  0  0  0  0  0  0  0
    1.3933    0.0000    0.0000 O   0  0  0  0  0  0  0  0  0  0  0  0
    0.0326    0.0000    0.0000 C   0  0  0  0  0  0  0  0  0  0  0  0
   -0.7376    0.0000    0.0000 C   0  0  0  0  0  0  0  0  0  0  0  0
    0.0130    0.0000    0.0000 C   0  0  0  0  0  0  0  0  0  0  0  0
    0.7274    0.0000    0.0000 O   0  0  0  0  0  0  0  0  0  0  0  0
    1.4419    0.0000    0.0000 C   0  0  0  0  0  0  0  0  0  0  0  0
    1.4419    0.0000    0.0000 C   0  0  0  0  0  0  0  0  0  0  0  0
    2.1564    0.0000    0.0000 C   0  0  0  0  0  0  0  0  0  0  0  0
    1.6261    0.0000    0.0000 C   0  0  0  0  0  0  0  0  0  0  0  0
    2.6867    0.0000    0.0000 O   0  0  0  0  0  0  0  0  0  0  0  0
    2.4045    0.0000    0.0000 C   0  0  0  0  0  0  0  0  0  0  0  0
    2.8708    0.0000    0.0000 C   0  0  0  0  0  0  0  0  0  0  0  0
    3.5853    0.0000    0.0000 O   0  0  0  0  0  0  0  0  0  0  0  0
    2.8708    0.0000    0.0000 C   0  0  0  0  0  0  0  0  0  0  0  0
    3.5853    0.0000    0.0000 C   0  0  0  0  0  0  0  0  0  0  0  0
    2.1564    0.0000    0.0000 O   0  0  0  0  0  0  0  0  0  0  0  0
   -0.6923    0.0000    0.0000 C   0  0  0  0  0  0  0  0  0  0  0  0
   -1.4156    0.0000    0.0000 C   0  0  0  0  0  0  0  0  0  0  0  0
   -0.6745    0.0000    0.0000 C   0  0  0  0  0  0  0  0  0  0  0  0
    0.0488    0.0000    0.0000 O   0  0  0  0  0  0  0  0  0  0  0  0
    0.0668    0.0000    0.0000 C   0  0  0  0  0  0  0  0  0  0  0  0
    0.7899    0.0000    0.0000 O   0  0  0  0  0  0  0  0  0  0  0  0
    0.8078    0.0000    0.0000 C   0  0  0  0  0  0  0  0  0  0  0  0
    1.5311    0.0000    0.0000 C   0  0  0  0  0  0  0  0  0  0  0  0
    0.1026    0.0000    0.0000 C   0  0  0  0  0  0  0  0  0  0  0  0
   -0.6207    0.0000    0.0000 C   0  0  0  0  0  0  0  0  0  0  0  0
   -0.6386    0.0000    0.0000 C   0  0  0  0  0  0  0  0  0  0  0  0
   -1.3618    0.0000    0.0000 O   0  0  0  0  0  0  0  0  0  0  0  0
   -1.3261    0.0000    0.0000 N   0  0  0  0  0  0  0  0  0  0  0  0
   -1.3081    0.0000    0.0000 C   0  0  0  0  0  0  0  0  0  0  0  0
   -2.0493    0.0000    0.0000 C   0  0  0  0  0  0  0  0  0  0  0  0
   -1.3798    0.0000    0.0000 C   0  0  0  0  0  0  0  0  0  0  0  0
   -0.8359    0.0000    0.0000 C   0  0  0  0  0  0  0  0  0  0  0  0
   -1.8962    0.0000    0.0000 O   0  0  0  0  0  0  0  0  0  0  0  0
   -2.1030    0.0000    0.0000 C   0  0  0  0  0  0  0  0  0  0  0  0
   -2.1209    0.0000    0.0000 C   0  0  0  0  0  0  0  0  0  0  0  0
   -1.8018    0.0000    0.0000 C   0  0  0  0  0  0  0  0  0  0  0  0
   -2.8442    0.0000    0.0000 C   0  0  0  0  0  0  0  0  0  0  0  0
   -2.8621    0.0000    0.0000 N   0  0  0  0  0  0  0  0  0  0  0  0
   -3.5853    0.0000    0.0000 C   0  0  0  0  0  0  0  0  0  0  0  0
   -2.1567    0.0000    0.0000 C   0  0  0  0  0  0  0  0  0  0  0  0
   -1.4335    0.0000    0.0000 C   0  0  0  0  0  0  0  0  0  0  0  0
   -2.1746    0.0000    0.0000 C   0  0  0  0  0  0  0  0  0  0  0  0
   -2.8979    0.0000    0.0000 O   0  0  0  0  0  0  0  0  0  0  0  0
   -1.4693    0.0000    0.0000 C   0  0  0  0  0  0  0  0  0  0  0  0
   -1.8844    0.0000    0.0000 C   0  0  0  0  0  0  0  0  0  0  0  0
   -1.1178    0.0000    0.0000 O   0  0  0  0  0  0  0  0  0  0  0  0
  3  4  1  0      
  4  5  1  0      
  5  6  1  0      
  6  7  1  0      
  7  8  2  0      
  7  9  1  0      
  9 10  1  0      
  9 11  1  0      
 11 12  1  0      
 12 13  1  0      
 13 14  1  0      
 14 15  1  0      
 15 16  1  0      
 15 17  1  0      
 17 18  1  0      
 15 19  1  0      
 19 20  1  0      
 19 21  1  0      
 21 22  1  0      
 21 23  1  0      
 13 23  1  0      
 11 24  1  0      
 24 25  1  0      
 24 26  1  0      
 26 27  1  0      
 27 28  1  0      
 28 29  1  0      
 29 30  1  0      
 30 31  1  0      
 30 32  1  0      
 32 33  1  0      
 33 34  1  0      
 28 34  1  0      
 34 35  1  0      
 33 36  1  0      
 36 37  1  0      
 36 38  1  0      
 26 39  1  0      
 39 40  1  0      
 39 41  1  0      
 39 42  1  0      
 42 43  1  0      
 43 44  1  0      
 43 45  1  0      
 45 46  1  0      
 46 47  1  0      
 46 48  1  0      
 48 49  1  0      
 48 50  1  0      
 50 51  1  0      
 50 52  1  0      
  5 52  1  0      
 52 53  1  0      
 52 54  1  0      
M  END
>  <Bioactivity>
Azithromycin Dihydrate is an acid stable orally administered macrolide antimicrobial drug, structurally related to erythromycin

>  <CAS>
117772-70-0

>  <Col>
10

>  <Formula>
C38H72N2O12?2H2O

>  <ID>
T1419

>  <Index>
419

>  <MOLENAME>
Azithromycin dihydrate

>  <MolWt>
785.03

>  <Pathways>
Microbiology & Virology

>  <Plate>
PLATE 006

>  <QR code>
1151480308

>  <Receptor>
23S rRNA; 50S ribosomal protein

>  <Reference>
1. Peters DH, et al. Drugs, 1992, 44(5), 750-799.

>  <Row>
B

>  <SMILES>
O.O.CCC1OC(=O)C(C)C(OC2CC(C)(OC)C(O)C(C)O2)C(C)C(OC2OC(C)CC(C2O)N(C)C)C(C)(O)CC(C)CN(C)C(C)C(O)C1(C)O

>  <Target>
Antibiotic 

>  <Weight>
10.1mg

$$$$
Lab-1.sdf
  ChemDraw05232018482D

 22 25  0  0  0  0  0  0  0  0999 V2000
   -2.0035    0.0000    0.0000 C   0  0  0  0  0  0  0  0  0  0  0  0
   -1.6436    0.0000    0.0000 C   0  0  0  0  0  0  0  0  0  0  0  0
   -1.1118    0.0000    0.0000 C   0  0  0  0  0  0  0  0  0  0  0  0
   -0.2997    0.0000    0.0000 C   0  0  0  0  0  0  0  0  0  0  0  0
   -0.0194    0.0000    0.0000 C   0  0  0  0  0  0  0  0  0  0  0  0
   -0.5512    0.0000    0.0000 C   0  0  0  0  0  0  0  0  0  0  0  0
   -0.2709    0.0000    0.0000 C   0  0  0  0  0  0  0  0  0  0  0  0
    0.5412    0.0000    0.0000 C   0  0  0  0  0  0  0  0  0  0  0  0
    1.0730    0.0000    0.0000 C   0  0  0  0  0  0  0  0  0  0  0  0
    0.7927    0.0000    0.0000 C   0  0  0  0  0  0  0  0  0  0  0  0
    1.3246    0.0000    0.0000 C   0  0  0  0  0  0  0  0  0  0  0  0
    2.1367    0.0000    0.0000 C   0  0  0  0  0  0  0  0  0  0  0  0
    2.4171    0.0000    0.0000 C   0  0  0  0  0  0  0  0  0  0  0  0
    3.2292    0.0000    0.0000 O   0  0  0  0  0  0  0  0  0  0  0  0
    1.8852    0.0000    0.0000 C   0  0  0  0  0  0  0  0  0  0  0  0
   -1.3633    0.0000    0.0000 C   0  0  0  0  0  0  0  0  0  0  0  0
   -2.0147    0.0000    0.0000 C   0  0  0  0  0  0  0  0  0  0  0  0
   -2.6976    0.0000    0.0000 C   0  0  0  0  0  0  0  0  0  0  0  0
   -2.4683    0.0000    0.0000 C   0  0  0  0  0  0  0  0  0  0  0  0
   -3.2292    0.0000    0.0000 O   0  0  0  0  0  0  0  0  0  0  0  0
   -2.5897    0.0000    0.0000 C   0  0  0  0  0  0  0  0  0  0  0  0
   -2.7111    0.0000    0.0000 C   0  0  0  0  0  0  0  0  0  0  0  0
  1  2  1  0      
  2  3  1  0      
  3  4  1  0      
  4  5  1  0      
  5  6  1  0      
  6  7  1  0      
  7  8  1  0      
  8  9  1  0      
  9 10  2  0      
  5 10  1  0      
 10 11  1  0      
 11 12  2  0      
 12 13  1  0      
 13 14  1  0      
 13 15  2  0      
  9 15  1  0      
  6 16  1  0      
  2 16  1  0      
 16 17  1  0      
 17 18  1  0      
 18 19  1  0      
  2 19  1  0      
 19 20  1  0      
 19 21  1  0      
 21 22  3  0      
M  END
>  <Bioactivity>
Ethynyl estradiol is an orally bio-active estrogen used in almost all modern formulations of combined oral contraceptive pills. EE is hormonally effective by activating the estrogen receptor and thus 
is an estrogen. It finds its most common use in the estrogen-progestin combination preparations of oral contraceptives. 

>  <CAS>
57-63-6

>  <Col>
11

>  <Formula>
C20H24O2

>  <ID>
T1424

>  <Index>
420

>  <MOLENAME>
Ethynyl estradiol

>  <MolWt>
296.41

>  <Pathways>
Endocrinology/ Hormones

>  <Plate>
PLATE 006

>  <QR code>
1151480309

>  <Receptor>
Estrogen Receptor

>  <Reference>
1. Micevych PE, et al. Endocrinology. 2007, 148(2):782-9. 

>  <Row>
B

>  <SMILES>
CC12CCC3C(CCC4=C3C=CC(O)=C4)C1CCC2(O)C#C

>  <Target>
Estrogen/Progestogen Receptor agonist

>  <Weight>
10.4mg

$$$$
Lab-1.sdf
  ChemDraw05232018482D

 24 27  0  0  0  0  0  0  0  0999 V2000
   -3.5105    0.0000    0.0000 C   0  0  0  0  0  0  0  0  0  0  0  0
   -2.6933    0.0000    0.0000 C   0  0  0  0  0  0  0  0  0  0  0  0
   -2.3824    0.0000    0.0000 O   0  0  0  0  0  0  0  0  0  0  0  0
   -2.1869    0.0000    0.0000 C   0  0  0  0  0  0  0  0  0  0  0  0
   -2.4162    0.0000    0.0000 C   0  0  0  0  0  0  0  0  0  0  0  0
   -1.7333    0.0000    0.0000 C   0  0  0  0  0  0  0  0  0  0  0  0
   -1.0820    0.0000    0.0000 C   0  0  0  0  0  0  0  0  0  0  0  0
   -0.2698    0.0000    0.0000 C   0  0  0  0  0  0  0  0  0  0  0  0
    0.0104    0.0000    0.0000 C   0  0  0  0  0  0  0  0  0  0  0  0
    0.8226    0.0000    0.0000 C   0  0  0  0  0  0  0  0  0  0  0  0
    1.3544    0.0000    0.0000 C   0  0  0  0  0  0  0  0  0  0  0  0
    2.1666    0.0000    0.0000 C   0  0  0  0  0  0  0  0  0  0  0  0
    2.6984    0.0000    0.0000 C   0  0  0  0  0  0  0  0  0  0  0  0
    3.5105    0.0000    0.0000 O   0  0  0  0  0  0  0  0  0  0  0  0
    2.4181    0.0000    0.0000 C   0  0  0  0  0  0  0  0  0  0  0  0
    1.6059    0.0000    0.0000 C   0  0  0  0  0  0  0  0  0  0  0  0
    1.3256    0.0000    0.0000 O   0  0  0  0  0  0  0  0  0  0  0  0
    1.0741    0.0000    0.0000 C   0  0  0  0  0  0  0  0  0  0  0  0
    0.7938    0.0000    0.0000 C   0  0  0  0  0  0  0  0  0  0  0  0
    0.2620    0.0000    0.0000 C   0  0  0  0  0  0  0  0  0  0  0  0
   -0.0183    0.0000    0.0000 C   0  0  0  0  0  0  0  0  0  0  0  0
   -0.8304    0.0000    0.0000 C   0  0  0  0  0  0  0  0  0  0  0  0
   -1.3623    0.0000    0.0000 C   0  0  0  0  0  0  0  0  0  0  0  0
   -1.7221    0.0000    0.0000 C   0  0  0  0  0  0  0  0  0  0  0  0
  1  2  1  0      
  2  3  2  0      
  2  4  1  0      
  4  5  1  0      
  5  6  1  0      
  6  7  1  0      
  7  8  1  0      
  8  9  1  0      
  9 10  1  0      
 10 11  1  0      
 11 12  2  0      
 12 13  1  0      
 13 14  2  0      
 13 15  1  0      
 15 16  1  0      
 16 17  1  0      
 16 18  1  0      
 11 18  1  0      
 18 19  1  0      
 18 20  1  0      
  8 20  1  0      
 20 21  1  0      
 21 22  1  0      
 22 23  1  0      
  4 23  1  0      
  7 23  1  0      
 23 24  1  0      
M  END
>  <Bioactivity>
17-Hydroxyprogesterone (17-OHP) is an endogenous progestogen as well as chemical intermediate in the biosynthesis of other steroid hormones, including the corticosteroids and the androgens and the est
rogens.

>  <CAS>
68-96-2

>  <Col>
2

>  <Formula>
C21H30O3

>  <ID>
T1429

>  <Index>
421

>  <MOLENAME>
Hydroxyprogesterone

>  <MolWt>
330.47

>  <Pathways>
Endocrinology/ Hormones

>  <Plate>
PLATE 006

>  <QR code>
1151480297

>  <Receptor>
ER agonist

>  <Reference>
1. Boonyaratanakornkit V, et al. Mol Endocrinol. 2007 Feb;21(2):359-75.

>  <Row>
C

>  <SMILES>
CC(=O)C1CCC2C3CCC4=CC(=O)CC(O)C4(C)C3CCC12C

>  <Target>
Estrogen/Progestogen Receptor agonist

>  <Weight>
10.1mg

$$$$
Lab-1.sdf
  ChemDraw05232018482D

 19 21  0  0  0  0  0  0  0  0999 V2000
   -1.1514    0.0000    0.0000 C   0  0  0  0  0  0  0  0  0  0  0  0
   -0.4370    0.0000    0.0000 O   0  0  0  0  0  0  0  0  0  0  0  0
   -0.4370    0.0000    0.0000 C   0  0  0  0  0  0  0  0  0  0  0  0
    0.2776    0.0000    0.0000 C   0  0  0  0  0  0  0  0  0  0  0  0
    0.9919    0.0000    0.0000 O   0  0  0  0  0  0  0  0  0  0  0  0
    1.7064    0.0000    0.0000 C   0  0  0  0  0  0  0  0  0  0  0  0
    2.4209    0.0000    0.0000 C   0  0  0  0  0  0  0  0  0  0  0  0
    1.7064    0.0000    0.0000 C   0  0  0  0  0  0  0  0  0  0  0  0
    0.9919    0.0000    0.0000 C   0  0  0  0  0  0  0  0  0  0  0  0
    0.9919    0.0000    0.0000 O   0  0  0  0  0  0  0  0  0  0  0  0
    0.2776    0.0000    0.0000 C   0  0  0  0  0  0  0  0  0  0  0  0
   -0.4370    0.0000    0.0000 C   0  0  0  0  0  0  0  0  0  0  0  0
   -0.4370    0.0000    0.0000 O   0  0  0  0  0  0  0  0  0  0  0  0
    0.2776    0.0000    0.0000 C   0  0  0  0  0  0  0  0  0  0  0  0
   -1.1514    0.0000    0.0000 C   0  0  0  0  0  0  0  0  0  0  0  0
   -1.1514    0.0000    0.0000 C   0  0  0  0  0  0  0  0  0  0  0  0
   -1.9361    0.0000    0.0000 O   0  0  0  0  0  0  0  0  0  0  0  0
   -2.4209    0.0000    0.0000 C   0  0  0  0  0  0  0  0  0  0  0  0
   -1.9361    0.0000    0.0000 C   0  0  0  0  0  0  0  0  0  0  0  0
  1  2  1  0      
  2  3  1  0      
  3  4  2  0      
  4  5  1  0      
  5  6  1  0      
  6  7  1  0      
  6  8  2  0      
  8  9  1  0      
  9 10  2  0      
  9 11  1  0      
  4 11  1  0      
 11 12  2  0      
 12 13  1  0      
 13 14  1  0      
 12 15  1  0      
 15 16  2  0      
  3 16  1  0      
 16 17  1  0      
 17 18  1  0      
 18 19  2  0      
 15 19  1  0      
M  END
>  <Bioactivity>
A vasodilator that also has bronchodilatory action. It has been employed in the treatment of angina pectoris, in the treatment of asthma, and in conjunction with ultraviolet light A, has been tried in
 the treatment of vitiligo. (From Martindale, The Extra Pharmacopoeia, 30th ed, p1024) 

>  <CAS>
82-02-0

>  <Col>
3

>  <Formula>
C14H12O5

>  <ID>
T1431

>  <Index>
422

>  <MOLENAME>
Khellin

>  <MolWt>
260.25

>  <Pathways>
Others

>  <Plate>
PLATE 006

>  <QR code>
1151480296

>  <Receptor>
Others

>  <Reference>
1. Vrzal R, et al. PLoS One. 2013 Sep 19;8(9):e74917. 

>  <Row>
C

>  <SMILES>
COC1=C2OC(C)=CC(=O)C2=C(OC)C2=C1OC=C2

>  <Target>
Others

>  <Weight>
10.3mg

$$$$
Lab-1.sdf
  ChemDraw05232018482D

 35 36  0  0  0  0  0  0  0  0999 V2000
   -6.4853    0.0000    0.0000 C   0  0  0  0  0  0  0  0  0  0  0  0
   -5.7708    0.0000    0.0000 C   0  0  0  0  0  0  0  0  0  0  0  0
   -5.7708    0.0000    0.0000 O   0  0  0  0  0  0  0  0  0  0  0  0
   -5.0564    0.0000    0.0000 C   0  0  0  0  0  0  0  0  0  0  0  0
   -5.0564    0.0000    0.0000 C   0  0  0  0  0  0  0  0  0  0  0  0
   -4.3420    0.0000    0.0000 C   0  0  0  0  0  0  0  0  0  0  0  0
   -3.9295    0.0000    0.0000 O   0  0  0  0  0  0  0  0  0  0  0  0
   -3.5170    0.0000    0.0000 C   0  0  0  0  0  0  0  0  0  0  0  0
   -2.8025    0.0000    0.0000 C   0  0  0  0  0  0  0  0  0  0  0  0
   -2.8025    0.0000    0.0000 C   0  0  0  0  0  0  0  0  0  0  0  0
   -2.0880    0.0000    0.0000 C   0  0  0  0  0  0  0  0  0  0  0  0
   -2.0880    0.0000    0.0000 O   0  0  0  0  0  0  0  0  0  0  0  0
   -2.8025    0.0000    0.0000 C   0  0  0  0  0  0  0  0  0  0  0  0
   -2.8025    0.0000    0.0000 C   0  0  0  0  0  0  0  0  0  0  0  0
   -2.0880    0.0000    0.0000 C   0  0  0  0  0  0  0  0  0  0  0  0
   -1.3737    0.0000    0.0000 C   0  0  0  0  0  0  0  0  0  0  0  0
   -2.0880    0.0000    0.0000 C   0  0  0  0  0  0  0  0  0  0  0  0
   -1.3737    0.0000    0.0000 C   0  0  0  0  0  0  0  0  0  0  0  0
   -1.3737    0.0000    0.0000 O   0  0  0  0  0  0  0  0  0  0  0  0
   -0.6592    0.0000    0.0000 O   0  0  0  0  0  0  0  0  0  0  0  0
    0.0553    0.0000    0.0000 C   0  0  0  0  0  0  0  0  0  0  0  0
    0.7697    0.0000    0.0000 C   0  0  0  0  0  0  0  0  0  0  0  0
    1.4842    0.0000    0.0000 C   0  0  0  0  0  0  0  0  0  0  0  0
    2.1986    0.0000    0.0000 C   0  0  0  0  0  0  0  0  0  0  0  0
    2.9131    0.0000    0.0000 C   0  0  0  0  0  0  0  0  0  0  0  0
    3.6275    0.0000    0.0000 C   0  0  0  0  0  0  0  0  0  0  0  0
    4.3420    0.0000    0.0000 C   0  0  0  0  0  0  0  0  0  0  0  0
    5.0564    0.0000    0.0000 C   0  0  0  0  0  0  0  0  0  0  0  0
    5.7708    0.0000    0.0000 C   0  0  0  0  0  0  0  0  0  0  0  0
    6.4853    0.0000    0.0000 O   0  0  0  0  0  0  0  0  0  0  0  0
    5.7708    0.0000    0.0000 O   0  0  0  0  0  0  0  0  0  0  0  0
   -3.5170    0.0000    0.0000 C   0  0  0  0  0  0  0  0  0  0  0  0
   -4.2315    0.0000    0.0000 O   0  0  0  0  0  0  0  0  0  0  0  0
   -3.5170    0.0000    0.0000 C   0  0  0  0  0  0  0  0  0  0  0  0
   -4.2315    0.0000    0.0000 O   0  0  0  0  0  0  0  0  0  0  0  0
  1  2  1  0      
  2  3  1  0      
  2  4  1  0      
  4  5  1  0      
  4  6  1  0      
  6  7  1  0      
  7  8  1  0      
  6  8  1  0      
  8  9  1  0      
  9 10  1  0      
 10 11  1  0      
 11 12  1  0      
 12 13  1  0      
 13 14  1  0      
 14 15  1  0      
 15 16  1  0      
 15 17  2  0      
 17 18  1  4      
 18 19  2  0      
 18 20  1  0      
 20 21  1  0      
 21 22  1  0      
 22 23  1  0      
 23 24  1  0      
 24 25  1  0      
 25 26  1  0      
 26 27  1  0      
 27 28  1  0      
 28 29  1  0      
 29 30  1  0      
 29 31  2  0      
 13 32  1  0      
 32 33  1  0      
 32 34  1  0      
 10 34  1  0      
 34 35  1  0      
M  END
>  <Bioactivity>
Mupirocin(BRL-4910A) is an antibiotic of the monoxycarbolic acid class; effective against Gram-positive bacteria, including MRSA.

>  <CAS>
12650-69-0

>  <Col>
4

>  <Formula>
C26H44O9

>  <ID>
T1465

>  <Index>
423

>  <MOLENAME>
Mupirocin

>  <MolWt>
500.64

>  <Pathways>
DNA Damage/DNA Repair

>  <Plate>
PLATE 006

>  <QR code>
1151480295

>  <Receptor>
DNA Synthesis

>  <Reference>
1. Hurdle JG, et al. J Antimicrob ChemOthers. 2004 Jan;53(1):102-4. 

>  <Row>
C

>  <SMILES>
CC(O)C(C)C1OC1CC1COC(CC(C)=CC(=O)OCCCCCCCCC(O)=O)C(O)C1O

>  <Target>
DNA Synthesis inhibitor

>  <Weight>
10.1mg

$$$$
Lab-1.sdf
  ChemDraw05232018482D

 65 68  0  0  0  0  0  0  0  0999 V2000
   -6.2170    0.0000    0.0000 C   0  0  0  0  0  0  0  0  0  0  0  0
   -5.6819    0.0000    0.0000 O   0  0  0  0  0  0  0  0  0  0  0  0
   -4.8706    0.0000    0.0000 C   0  0  0  0  0  0  0  0  0  0  0  0
   -4.3354    0.0000    0.0000 C   0  0  0  0  0  0  0  0  0  0  0  0
   -3.5241    0.0000    0.0000 C   0  0  0  0  0  0  0  0  0  0  0  0
   -2.9890    0.0000    0.0000 C   0  0  0  0  0  0  0  0  0  0  0  0
   -3.2652    0.0000    0.0000 C   0  0  0  0  0  0  0  0  0  0  0  0
   -4.0765    0.0000    0.0000 C   0  0  0  0  0  0  0  0  0  0  0  0
   -2.7300    0.0000    0.0000 C   0  0  0  0  0  0  0  0  0  0  0  0
   -3.0507    0.0000    0.0000 C   0  0  0  0  0  0  0  0  0  0  0  0
   -3.7675    0.0000    0.0000 C   0  0  0  0  0  0  0  0  0  0  0  0
   -4.5193    0.0000    0.0000 O   0  0  0  0  0  0  0  0  0  0  0  0
   -3.6004    0.0000    0.0000 C   0  0  0  0  0  0  0  0  0  0  0  0
   -4.1558    0.0000    0.0000 C   0  0  0  0  0  0  0  0  0  0  0  0
   -2.7804    0.0000    0.0000 C   0  0  0  0  0  0  0  0  0  0  0  0
   -2.1513    0.0000    0.0000 C   0  0  0  0  0  0  0  0  0  0  0  0
   -2.3935    0.0000    0.0000 C   0  0  0  0  0  0  0  0  0  0  0  0
   -1.3434    0.0000    0.0000 C   0  0  0  0  0  0  0  0  0  0  0  0
   -0.6733    0.0000    0.0000 O   0  0  0  0  0  0  0  0  0  0  0  0
   -0.7948    0.0000    0.0000 C   0  0  0  0  0  0  0  0  0  0  0  0
   -1.0540    0.0000    0.0000 O   0  0  0  0  0  0  0  0  0  0  0  0
   -1.8620    0.0000    0.0000 C   0  0  0  0  0  0  0  0  0  0  0  0
    0.0130    0.0000    0.0000 C   0  0  0  0  0  0  0  0  0  0  0  0
    0.2723    0.0000    0.0000 O   0  0  0  0  0  0  0  0  0  0  0  0
    0.5617    0.0000    0.0000 C   0  0  0  0  0  0  0  0  0  0  0  0
    0.3024    0.0000    0.0000 C   0  0  0  0  0  0  0  0  0  0  0  0
    1.3696    0.0000    0.0000 C   0  0  0  0  0  0  0  0  0  0  0  0
    1.9182    0.0000    0.0000 C   0  0  0  0  0  0  0  0  0  0  0  0
    1.6589    0.0000    0.0000 C   0  0  0  0  0  0  0  0  0  0  0  0
    2.7261    0.0000    0.0000 C   0  0  0  0  0  0  0  0  0  0  0  0
    3.2748    0.0000    0.0000 C   0  0  0  0  0  0  0  0  0  0  0  0
    4.0827    0.0000    0.0000 C   0  0  0  0  0  0  0  0  0  0  0  0
    4.3419    0.0000    0.0000 C   0  0  0  0  0  0  0  0  0  0  0  0
    5.1498    0.0000    0.0000 C   0  0  0  0  0  0  0  0  0  0  0  0
    5.4091    0.0000    0.0000 C   0  0  0  0  0  0  0  0  0  0  0  0
    6.2170    0.0000    0.0000 C   0  0  0  0  0  0  0  0  0  0  0  0
    4.8605    0.0000    0.0000 C   0  0  0  0  0  0  0  0  0  0  0  0
    4.0526    0.0000    0.0000 C   0  0  0  0  0  0  0  0  0  0  0  0
    3.5039    0.0000    0.0000 C   0  0  0  0  0  0  0  0  0  0  0  0
    3.7632    0.0000    0.0000 C   0  0  0  0  0  0  0  0  0  0  0  0
    3.2146    0.0000    0.0000 C   0  0  0  0  0  0  0  0  0  0  0  0
    2.4067    0.0000    0.0000 C   0  0  0  0  0  0  0  0  0  0  0  0
    1.8580    0.0000    0.0000 C   0  0  0  0  0  0  0  0  0  0  0  0
    2.1474    0.0000    0.0000 C   0  0  0  0  0  0  0  0  0  0  0  0
    1.5988    0.0000    0.0000 O   0  0  0  0  0  0  0  0  0  0  0  0
    2.6960    0.0000    0.0000 O   0  0  0  0  0  0  0  0  0  0  0  0
    1.3395    0.0000    0.0000 C   0  0  0  0  0  0  0  0  0  0  0  0
    1.0802    0.0000    0.0000 O   0  0  0  0  0  0  0  0  0  0  0  0
    0.7908    0.0000    0.0000 C   0  0  0  0  0  0  0  0  0  0  0  0
    1.0501    0.0000    0.0000 O   0  0  0  0  0  0  0  0  0  0  0  0
   -0.0171    0.0000    0.0000 N   0  0  0  0  0  0  0  0  0  0  0  0
   -0.2762    0.0000    0.0000 C   0  0  0  0  0  0  0  0  0  0  0  0
   -1.0841    0.0000    0.0000 C   0  0  0  0  0  0  0  0  0  0  0  0
   -1.6328    0.0000    0.0000 C   0  0  0  0  0  0  0  0  0  0  0  0
   -1.5307    0.0000    0.0000 C   0  0  0  0  0  0  0  0  0  0  0  0
   -0.5656    0.0000    0.0000 C   0  0  0  0  0  0  0  0  0  0  0  0
   -1.3735    0.0000    0.0000 C   0  0  0  0  0  0  0  0  0  0  0  0
   -2.0436    0.0000    0.0000 O   0  0  0  0  0  0  0  0  0  0  0  0
   -1.9221    0.0000    0.0000 O   0  0  0  0  0  0  0  0  0  0  0  0
    5.1197    0.0000    0.0000 O   0  0  0  0  0  0  0  0  0  0  0  0
    5.9277    0.0000    0.0000 C   0  0  0  0  0  0  0  0  0  0  0  0
   -3.2479    0.0000    0.0000 C   0  0  0  0  0  0  0  0  0  0  0  0
   -3.7830    0.0000    0.0000 C   0  0  0  0  0  0  0  0  0  0  0  0
   -4.5944    0.0000    0.0000 C   0  0  0  0  0  0  0  0  0  0  0  0
   -5.1295    0.0000    0.0000 O   0  0  0  0  0  0  0  0  0  0  0  0
  1  2  1  0      
  2  3  1  0      
  3  4  1  0      
  4  5  1  0      
  5  6  1  0      
  6  7  1  0      
  7  8  1  0      
  7  9  1  0      
  9 10  1  0      
 10 11  1  0      
 11 12  2  0      
 11 13  1  0      
 13 14  1  0      
 15 13  1  4      
 15 16  2  0      
 16 17  1  0      
 16 18  1  0      
 18 19  1  0      
 18 20  1  0      
 20 21  1  0      
 21 22  1  0      
 20 23  1  0      
 23 24  2  0      
 23 25  1  0      
 25 26  1  0      
 25 27  1  0      
 27 28  1  0      
 28 29  1  0      
 30 28  1  4      
 30 31  2  0      
 32 31  1  4      
 32 33  2  0      
 34 33  1  4      
 34 35  2  0      
 35 36  1  0      
 35 37  1  0      
 37 38  1  0      
 38 39  1  0      
 39 40  1  0      
 40 41  1  0      
 41 42  1  0      
 42 43  1  0      
 42 44  1  0      
 44 45  1  0      
 44 46  1  0      
 39 46  1  0      
 44 47  1  0      
 47 48  2  0      
 47 49  1  0      
 49 50  2  0      
 49 51  1  0      
 51 52  1  0      
 52 53  1  0      
 53 54  1  0      
 54 55  1  0      
 55 56  1  0      
 51 56  1  0      
 56 57  1  0      
 57 58  2  0      
 57 59  1  0      
  9 59  1  0      
 37 60  1  0      
 60 61  1  0      
  5 62  1  0      
 62 63  1  0      
 63 64  1  0      
  3 64  1  0      
 64 65  1  0      
M  END
>  <Bioactivity>
Sirolimus is a mTOR Inhibitor Immunosuppressant. 

>  <CAS>
53123-88-9

>  <Col>
5

>  <Formula>
C51H79NO13

>  <ID>
T1537

>  <Index>
424

>  <MOLENAME>
Rapamycin (Sirolimus)

>  <MolWt>
914.18

>  <Pathways>
PI3K/Akt/mTOR Signaling; Tyrosine Kinase/Adaptors

>  <Plate>
PLATE 006

>  <QR code>
1151480294

>  <Receptor>
mTOR; FGFR 2; FKBP1A

>  <Reference>
1. Dowling RJ, et al. Biochim Biophys Acta. 2010 Mar;1804(3):433-9. 

>  <Row>
C

>  <SMILES>
COC1CC(CC(C)C2CC(=O)C(C)C=C(C)C(O)C(OC)C(=O)C(C)CC(C)C=CC=CC=C(C)C(CC3CCC(C)C(O)(O3)C(=O)C(=O)N3CCCCC3C(=O)O2)OC)CCC1O

>  <Target>
mTOR inhibitor; FGFR inhibitor

>  <Weight>
10.4mg

$$$$
Lab-1.sdf
  ChemDraw05232018482D

 16 18  0  0  0  0  0  0  0  0999 V2000
   -1.1514    0.0000    0.0000 C   0  0  0  0  0  0  0  0  0  0  0  0
   -0.4369    0.0000    0.0000 O   0  0  0  0  0  0  0  0  0  0  0  0
   -0.4369    0.0000    0.0000 C   0  0  0  0  0  0  0  0  0  0  0  0
    0.2775    0.0000    0.0000 C   0  0  0  0  0  0  0  0  0  0  0  0
    0.9919    0.0000    0.0000 O   0  0  0  0  0  0  0  0  0  0  0  0
    1.7064    0.0000    0.0000 C   0  0  0  0  0  0  0  0  0  0  0  0
    2.4209    0.0000    0.0000 O   0  0  0  0  0  0  0  0  0  0  0  0
    1.7064    0.0000    0.0000 C   0  0  0  0  0  0  0  0  0  0  0  0
    0.9919    0.0000    0.0000 C   0  0  0  0  0  0  0  0  0  0  0  0
    0.2775    0.0000    0.0000 C   0  0  0  0  0  0  0  0  0  0  0  0
   -0.4369    0.0000    0.0000 C   0  0  0  0  0  0  0  0  0  0  0  0
   -1.1514    0.0000    0.0000 C   0  0  0  0  0  0  0  0  0  0  0  0
   -1.1514    0.0000    0.0000 C   0  0  0  0  0  0  0  0  0  0  0  0
   -1.9360    0.0000    0.0000 O   0  0  0  0  0  0  0  0  0  0  0  0
   -2.4209    0.0000    0.0000 C   0  0  0  0  0  0  0  0  0  0  0  0
   -1.9360    0.0000    0.0000 C   0  0  0  0  0  0  0  0  0  0  0  0
  1  2  1  0      
  2  3  1  0      
  3  4  2  0      
  4  5  1  0      
  5  6  1  0      
  6  7  2  0      
  6  8  1  0      
  8  9  2  0      
  9 10  1  0      
  4 10  1  0      
 10 11  2  0      
 11 12  1  0      
 12 13  2  0      
  3 13  1  0      
 13 14  1  0      
 14 15  1  0      
 15 16  2  0      
 12 16  1  0      
M  END
>  <Bioactivity>
Methoxsalen (8-Methoxypsoralen) is a potent tricyclic furocoumarin suicide inhibitor of CYP (cytochrome P-450), is an agent used to treat psoriasis, eczema, vitiligo and some cutaneous Lymphomas in co
njunction with exposing the skin to sunlight.

>  <CAS>
298-81-7

>  <Col>
6

>  <Formula>
C12H8O4

>  <ID>
T1548

>  <Index>
425

>  <MOLENAME>
8-Methoxypsoralen

>  <MolWt>
216.19

>  <Pathways>
Others

>  <Plate>
PLATE 006

>  <QR code>
1151480293

>  <Receptor>
DNA

>  <Reference>
1. Smith SI, et al. Analyst. 2010 May; 135(5):943-52.

>  <Row>
C

>  <SMILES>
COC1=C2OC(=O)C=CC2=CC2=C1OC=C2

>  <Target>
DNA photosenstizing

>  <Weight>
10.3mg

$$$$
Lab-1.sdf
  ChemDraw05232018482D

 17 18  0  0  0  0  0  0  0  0999 V2000
   -0.7145    0.0000    0.0000 O   0  0  0  0  0  0  0  0  0  0  0  0
   -0.7145    0.0000    0.0000 C   0  0  0  0  0  0  0  0  0  0  0  0
   -0.0001    0.0000    0.0000 C   0  0  0  0  0  0  0  0  0  0  0  0
   -0.0001    0.0000    0.0000 C   0  0  0  0  0  0  0  0  0  0  0  0
   -0.7145    0.0000    0.0000 C   0  0  0  0  0  0  0  0  0  0  0  0
   -0.7145    0.0000    0.0000 C   0  0  0  0  0  0  0  0  0  0  0  0
   -0.0001    0.0000    0.0000 C   0  0  0  0  0  0  0  0  0  0  0  0
   -0.0001    0.0000    0.0000 C   0  0  0  0  0  0  0  0  0  0  0  0
    0.7145    0.0000    0.0000 C   0  0  0  0  0  0  0  0  0  0  0  0
    0.7145    0.0000    0.0000 C   0  0  0  0  0  0  0  0  0  0  0  0
    1.4289    0.0000    0.0000 O   0  0  0  0  0  0  0  0  0  0  0  0
   -0.0001    0.0000    0.0000 C   0  0  0  0  0  0  0  0  0  0  0  0
   -0.7145    0.0000    0.0000 C   0  0  0  0  0  0  0  0  0  0  0  0
   -1.4289    0.0000    0.0000 O   0  0  0  0  0  0  0  0  0  0  0  0
   -0.7145    0.0000    0.0000 C   0  0  0  0  0  0  0  0  0  0  0  0
   -1.4289    0.0000    0.0000 C   0  0  0  0  0  0  0  0  0  0  0  0
   -1.4289    0.0000    0.0000 C   0  0  0  0  0  0  0  0  0  0  0  0
  1  2  1  0      
  2  3  2  0      
  3  4  1  0      
  4  5  2  0      
  6  5  1  4      
  6  7  2  0      
  7  8  1  0      
  8  9  2  0      
  9 10  1  0      
 10 11  1  0      
 10 12  2  0      
 12 13  1  0      
 13 14  1  0      
 13 15  2  0      
  8 15  1  0      
  5 16  1  0      
 16 17  2  0      
  2 17  1  0      
M  END
>  <Bioactivity>
Resveratrol is a phytoalexin produced naturally by several plants with anti-Y, anti-inflammatory, blood-sugar-lowering and other beneficial cardiovascular effects.

>  <CAS>
501-36-0

>  <Col>
7

>  <Formula>
C14H12O3

>  <ID>
T1558

>  <Index>
426

>  <MOLENAME>
Resveratrol

>  <MolWt>
228.24

>  <Pathways>
Chromatin/Epigenetic; Ubiquitination

>  <Plate>
PLATE 006

>  <QR code>
1151480292

>  <Receptor>
Sirt1; 2; DNA; Prostaglandin G/H synthase; Autophagy

>  <Reference>
1. Pirola L, et al. IUBMB Life, 2008, 60(5), 323-332.

>  <Row>
C

>  <SMILES>
OC1=CC=C(C=CC2=CC(O)=CC(O)=C2)C=C1

>  <Target>
HDAC activator; DNA Synthesis inhibitor; COX inhibitor; Autophagy activator

>  <Weight>
10.4mg

$$$$
Lab-1.sdf
  ChemDraw05232018482D

 65 66  0  0  0  0  0  0  0  0999 V2000
    3.9296    0.0000    0.0000 C   0  0  0  0  0  0  0  0  0  0  0  0
    3.9296    0.0000    0.0000 C   0  0  0  0  0  0  0  0  0  0  0  0
    3.2151    0.0000    0.0000 O   0  0  0  0  0  0  0  0  0  0  0  0
    3.2151    0.0000    0.0000 C   0  0  0  0  0  0  0  0  0  0  0  0
    2.5007    0.0000    0.0000 O   0  0  0  0  0  0  0  0  0  0  0  0
    1.7862    0.0000    0.0000 C   0  0  0  0  0  0  0  0  0  0  0  0
    1.7862    0.0000    0.0000 C   0  0  0  0  0  0  0  0  0  0  0  0
    1.0717    0.0000    0.0000 C   0  0  0  0  0  0  0  0  0  0  0  0
    1.0717    0.0000    0.0000 O   0  0  0  0  0  0  0  0  0  0  0  0
    0.3572    0.0000    0.0000 C   0  0  0  0  0  0  0  0  0  0  0  0
    0.3572    0.0000    0.0000 C   0  0  0  0  0  0  0  0  0  0  0  0
    1.0717    0.0000    0.0000 O   0  0  0  0  0  0  0  0  0  0  0  0
   -0.3572    0.0000    0.0000 C   0  0  0  0  0  0  0  0  0  0  0  0
   -0.3572    0.0000    0.0000 C   0  0  0  0  0  0  0  0  0  0  0  0
    0.3572    0.0000    0.0000 O   0  0  0  0  0  0  0  0  0  0  0  0
   -1.0717    0.0000    0.0000 C   0  0  0  0  0  0  0  0  0  0  0  0
   -1.0717    0.0000    0.0000 C   0  0  0  0  0  0  0  0  0  0  0  0
   -0.3572    0.0000    0.0000 O   0  0  0  0  0  0  0  0  0  0  0  0
   -1.7862    0.0000    0.0000 C   0  0  0  0  0  0  0  0  0  0  0  0
   -2.5006    0.0000    0.0000 O   0  0  0  0  0  0  0  0  0  0  0  0
   -1.7862    0.0000    0.0000 C   0  0  0  0  0  0  0  0  0  0  0  0
   -2.5006    0.0000    0.0000 C   0  0  0  0  0  0  0  0  0  0  0  0
   -2.5006    0.0000    0.0000 C   0  0  0  0  0  0  0  0  0  0  0  0
   -1.7862    0.0000    0.0000 O   0  0  0  0  0  0  0  0  0  0  0  0
   -3.2151    0.0000    0.0000 C   0  0  0  0  0  0  0  0  0  0  0  0
   -3.2151    0.0000    0.0000 C   0  0  0  0  0  0  0  0  0  0  0  0
   -2.5006    0.0000    0.0000 O   0  0  0  0  0  0  0  0  0  0  0  0
   -3.9296    0.0000    0.0000 C   0  0  0  0  0  0  0  0  0  0  0  0
   -3.9296    0.0000    0.0000 C   0  0  0  0  0  0  0  0  0  0  0  0
   -3.2151    0.0000    0.0000 O   0  0  0  0  0  0  0  0  0  0  0  0
   -4.6441    0.0000    0.0000 C   0  0  0  0  0  0  0  0  0  0  0  0
   -4.6441    0.0000    0.0000 C   0  0  0  0  0  0  0  0  0  0  0  0
   -5.3585    0.0000    0.0000 O   0  0  0  0  0  0  0  0  0  0  0  0
   -3.9296    0.0000    0.0000 O   0  0  0  0  0  0  0  0  0  0  0  0
   -3.9296    0.0000    0.0000 C   0  0  0  0  0  0  0  0  0  0  0  0
   -4.6441    0.0000    0.0000 C   0  0  0  0  0  0  0  0  0  0  0  0
   -3.2151    0.0000    0.0000 C   0  0  0  0  0  0  0  0  0  0  0  0
   -3.2151    0.0000    0.0000 C   0  0  0  0  0  0  0  0  0  0  0  0
   -2.5006    0.0000    0.0000 C   0  0  0  0  0  0  0  0  0  0  0  0
   -1.7862    0.0000    0.0000 O   0  0  0  0  0  0  0  0  0  0  0  0
   -2.5006    0.0000    0.0000 C   0  0  0  0  0  0  0  0  0  0  0  0
   -3.2151    0.0000    0.0000 C   0  0  0  0  0  0  0  0  0  0  0  0
   -1.7862    0.0000    0.0000 C   0  0  0  0  0  0  0  0  0  0  0  0
   -1.7862    0.0000    0.0000 C   0  0  0  0  0  0  0  0  0  0  0  0
   -1.0717    0.0000    0.0000 C   0  0  0  0  0  0  0  0  0  0  0  0
   -1.0717    0.0000    0.0000 C   0  0  0  0  0  0  0  0  0  0  0  0
   -0.3572    0.0000    0.0000 C   0  0  0  0  0  0  0  0  0  0  0  0
   -0.3572    0.0000    0.0000 C   0  0  0  0  0  0  0  0  0  0  0  0
    0.3572    0.0000    0.0000 C   0  0  0  0  0  0  0  0  0  0  0  0
    0.3572    0.0000    0.0000 C   0  0  0  0  0  0  0  0  0  0  0  0
    1.0717    0.0000    0.0000 C   0  0  0  0  0  0  0  0  0  0  0  0
    1.0717    0.0000    0.0000 C   0  0  0  0  0  0  0  0  0  0  0  0
    1.7862    0.0000    0.0000 C   0  0  0  0  0  0  0  0  0  0  0  0
    1.7862    0.0000    0.0000 C   0  0  0  0  0  0  0  0  0  0  0  0
    2.5007    0.0000    0.0000 C   0  0  0  0  0  0  0  0  0  0  0  0
    2.5007    0.0000    0.0000 C   0  0  0  0  0  0  0  0  0  0  0  0
   -0.3572    0.0000    0.0000 C   0  0  0  0  0  0  0  0  0  0  0  0
   -1.0717    0.0000    0.0000 O   0  0  0  0  0  0  0  0  0  0  0  0
   -0.3572    0.0000    0.0000 O   0  0  0  0  0  0  0  0  0  0  0  0
    3.9296    0.0000    0.0000 C   0  0  0  0  0  0  0  0  0  0  0  0
    3.9296    0.0000    0.0000 O   0  0  0  0  0  0  0  0  0  0  0  0
    4.6441    0.0000    0.0000 C   0  0  0  0  0  0  0  0  0  0  0  0
    5.3585    0.0000    0.0000 N   0  0  0  0  0  0  0  0  0  0  0  0
    4.6441    0.0000    0.0000 C   0  0  0  0  0  0  0  0  0  0  0  0
    5.3585    0.0000    0.0000 O   0  0  0  0  0  0  0  0  0  0  0  0
  1  2  1  0      
  2  3  1  0      
  3  4  1  0      
  4  5  1  0      
  5  6  1  0      
  6  7  1  0      
  7  8  1  0      
  8  9  1  0      
  8 10  1  0      
 10 11  1  0      
 11 12  1  0      
 11 13  1  0      
 13 14  1  0      
 14 15  2  0      
 14 16  1  0      
 16 17  1  0      
 17 18  1  0      
 17 19  1  0      
 19 20  1  0      
 19 21  1  0      
 21 22  1  0      
 22 23  1  0      
 23 24  1  0      
 23 25  1  0      
 25 26  1  0      
 26 27  1  0      
 26 28  1  0      
 28 29  1  0      
 29 30  1  0      
 29 31  1  0      
 31 32  1  0      
 32 33  2  0      
 32 34  1  0      
 34 35  1  0      
 35 36  1  0      
 35 37  1  0      
 37 38  1  0      
 37 39  1  0      
 39 40  1  0      
 39 41  1  0      
 41 42  1  0      
 43 41  1  4      
 43 44  2  0      
 45 44  1  4      
 45 46  2  0      
 46 47  1  0      
 47 48  1  0      
 49 48  1  4      
 49 50  2  0      
 51 50  1  4      
 51 52  2  0      
 53 52  1  4      
 53 54  2  0      
 55 54  1  4      
 55 56  2  0      
  6 56  1  0      
 10 57  1  0      
 57 58  1  0      
 57 59  2  0      
  4 60  1  0      
 60 61  1  0      
 60 62  1  0      
 62 63  1  0      
 62 64  1  0      
  2 64  1  0      
 64 65  1  0      
M  END
>  <Bioactivity>
Nystatin, which belongs to the polyene group of antimycotics, is frequently used as a topical agent in the treatment of oro-pharyngeal candidosis.

>  <CAS>
1400-61-9

>  <Col>
8

>  <Formula>
C47H75NO17

>  <ID>
T1678

>  <Index>
427

>  <MOLENAME>
Nystatin (Fungicidin)

>  <MolWt>
926.1

>  <Pathways>
Microbiology & Virology

>  <Plate>
PLATE 006

>  <QR code>
1151480291

>  <Receptor>
Others

>  <Reference>
1. Wallace TL, et al. Antimicrob Agents ChemOthers,?997, 41(10), 2238-2243.

>  <Row>
C

>  <SMILES>
CC1OC(OC2CC(O)C(C(O)CC(=O)CC(O)C(O)CCC(O)CC(O)CC(O)CC(=O)OC(C)C(C)C(O)C(C)C=CC=CCCC=CC=CC=CC=C2)C(O)=O)C(O)C(N)C1O

>  <Target>
Antibiotic

>  <Weight>
10.2mg

$$$$
Lab-1.sdf
  ChemDraw05232018482D

114123  0  0  0  0  0  0  0  0999 V2000
    7.3977    0.0000    0.0000 C   0  0  0  0  0  0  0  0  0  0  0  0
    6.7354    0.0000    0.0000 C   0  0  0  0  0  0  0  0  0  0  0  0
    6.8302    0.0000    0.0000 C   0  0  0  0  0  0  0  0  0  0  0  0
    7.5873    0.0000    0.0000 C   0  0  0  0  0  0  0  0  0  0  0  0
    6.1679    0.0000    0.0000 C   0  0  0  0  0  0  0  0  0  0  0  0
    6.1324    0.0000    0.0000 N   0  0  0  0  0  0  0  0  0  0  0  0
    5.4620    0.0000    0.0000 C   0  0  0  0  0  0  0  0  0  0  0  0
    5.3373    0.0000    0.0000 C   0  0  0  0  0  0  0  0  0  0  0  0
    4.5576    0.0000    0.0000 C   0  0  0  0  0  0  0  0  0  0  0  0
    3.8447    0.0000    0.0000 C   0  0  0  0  0  0  0  0  0  0  0  0
    3.8618    0.0000    0.0000 C   0  0  0  0  0  0  0  0  0  0  0  0
    3.1276    0.0000    0.0000 N   0  0  0  0  0  0  0  0  0  0  0  0
    2.3783    0.0000    0.0000 C   0  0  0  0  0  0  0  0  0  0  0  0
    2.3333    0.0000    0.0000 C   0  0  0  0  0  0  0  0  0  0  0  0
    3.1505    0.0000    0.0000 C   0  0  0  0  0  0  0  0  0  0  0  0
    3.1953    0.0000    0.0000 C   0  0  0  0  0  0  0  0  0  0  0  0
    3.9311    0.0000    0.0000 C   0  0  0  0  0  0  0  0  0  0  0  0
    2.5044    0.0000    0.0000 O   0  0  0  0  0  0  0  0  0  0  0  0
    1.7581    0.0000    0.0000 C   0  0  0  0  0  0  0  0  0  0  0  0
    1.9486    0.0000    0.0000 O   0  0  0  0  0  0  0  0  0  0  0  0
    0.9546    0.0000    0.0000 O   0  0  0  0  0  0  0  0  0  0  0  0
    0.1579    0.0000    0.0000 C   0  0  0  0  0  0  0  0  0  0  0  0
    0.0387    0.0000    0.0000 C   0  0  0  0  0  0  0  0  0  0  0  0
   -0.5877    0.0000    0.0000 C   0  0  0  0  0  0  0  0  0  0  0  0
   -0.1132    0.0000    0.0000 N   0  0  0  0  0  0  0  0  0  0  0  0
    0.5643    0.0000    0.0000 C   0  0  0  0  0  0  0  0  0  0  0  0
    0.1778    0.0000    0.0000 O   0  0  0  0  0  0  0  0  0  0  0  0
    1.4067    0.0000    0.0000 C   0  0  0  0  0  0  0  0  0  0  0  0
    1.8074    0.0000    0.0000 C   0  0  0  0  0  0  0  0  0  0  0  0
    2.7322    0.0000    0.0000 S   0  0  0  0  0  0  0  0  0  0  0  0
    2.8762    0.0000    0.0000 C   0  0  0  0  0  0  0  0  0  0  0  0
    2.0853    0.0000    0.0000 N   0  0  0  0  0  0  0  0  0  0  0  0
    3.8227    0.0000    0.0000 C   0  0  0  0  0  0  0  0  0  0  0  0
    4.5114    0.0000    0.0000 N   0  0  0  0  0  0  0  0  0  0  0  0
    5.0656    0.0000    0.0000 C   0  0  0  0  0  0  0  0  0  0  0  0
    5.7455    0.0000    0.0000 O   0  0  0  0  0  0  0  0  0  0  0  0
    5.5695    0.0000    0.0000 C   0  0  0  0  0  0  0  0  0  0  0  0
    6.4828    0.0000    0.0000 C   0  0  0  0  0  0  0  0  0  0  0  0
    6.4330    0.0000    0.0000 S   0  0  0  0  0  0  0  0  0  0  0  0
    5.7104    0.0000    0.0000 C   0  0  0  0  0  0  0  0  0  0  0  0
    5.1829    0.0000    0.0000 N   0  0  0  0  0  0  0  0  0  0  0  0
    5.6769    0.0000    0.0000 C   0  0  0  0  0  0  0  0  0  0  0  0
    5.2612    0.0000    0.0000 N   0  0  0  0  0  0  0  0  0  0  0  0
    4.6681    0.0000    0.0000 C   0  0  0  0  0  0  0  0  0  0  0  0
    5.1895    0.0000    0.0000 O   0  0  0  0  0  0  0  0  0  0  0  0
    3.9548    0.0000    0.0000 C   0  0  0  0  0  0  0  0  0  0  0  0
    3.1395    0.0000    0.0000 N   0  0  0  0  0  0  0  0  0  0  0  0
    2.2884    0.0000    0.0000 C   0  0  0  0  0  0  0  0  0  0  0  0
    2.2074    0.0000    0.0000 O   0  0  0  0  0  0  0  0  0  0  0  0
    1.4549    0.0000    0.0000 C   0  0  0  0  0  0  0  0  0  0  0  0
    0.7482    0.0000    0.0000 C   0  0  0  0  0  0  0  0  0  0  0  0
    0.0946    0.0000    0.0000 S   0  0  0  0  0  0  0  0  0  0  0  0
    0.2798    0.0000    0.0000 C   0  0  0  0  0  0  0  0  0  0  0  0
    1.1224    0.0000    0.0000 N   0  0  0  0  0  0  0  0  0  0  0  0
   -0.2035    0.0000    0.0000 C   0  0  0  0  0  0  0  0  0  0  0  0
   -0.4724    0.0000    0.0000 C   0  0  0  0  0  0  0  0  0  0  0  0
   -1.2822    0.0000    0.0000 C   0  0  0  0  0  0  0  0  0  0  0  0
   -1.8232    0.0000    0.0000 C   0  0  0  0  0  0  0  0  0  0  0  0
   -1.5543    0.0000    0.0000 N   0  0  0  0  0  0  0  0  0  0  0  0
   -0.7445    0.0000    0.0000 C   0  0  0  0  0  0  0  0  0  0  0  0
   -1.2469    0.0000    0.0000 C   0  0  0  0  0  0  0  0  0  0  0  0
   -2.0208    0.0000    0.0000 C   0  0  0  0  0  0  0  0  0  0  0  0
   -1.9804    0.0000    0.0000 S   0  0  0  0  0  0  0  0  0  0  0  0
   -1.1630    0.0000    0.0000 C   0  0  0  0  0  0  0  0  0  0  0  0
   -0.7383    0.0000    0.0000 N   0  0  0  0  0  0  0  0  0  0  0  0
   -2.6330    0.0000    0.0000 C   0  0  0  0  0  0  0  0  0  0  0  0
   -3.2361    0.0000    0.0000 N   0  0  0  0  0  0  0  0  0  0  0  0
   -3.9579    0.0000    0.0000 C   0  0  0  0  0  0  0  0  0  0  0  0
   -3.8007    0.0000    0.0000 C   0  0  0  0  0  0  0  0  0  0  0  0
   -2.9819    0.0000    0.0000 S   0  0  0  0  0  0  0  0  0  0  0  0
   -4.7053    0.0000    0.0000 C   0  0  0  0  0  0  0  0  0  0  0  0
   -5.3813    0.0000    0.0000 O   0  0  0  0  0  0  0  0  0  0  0  0
   -4.7769    0.0000    0.0000 N   0  0  0  0  0  0  0  0  0  0  0  0
   -5.5245    0.0000    0.0000 C   0  0  0  0  0  0  0  0  0  0  0  0
   -6.2004    0.0000    0.0000 C   0  0  0  0  0  0  0  0  0  0  0  0
   -5.5961    0.0000    0.0000 C   0  0  0  0  0  0  0  0  0  0  0  0
   -4.9201    0.0000    0.0000 O   0  0  0  0  0  0  0  0  0  0  0  0
   -6.3436    0.0000    0.0000 N   0  0  0  0  0  0  0  0  0  0  0  0
   -6.4152    0.0000    0.0000 C   0  0  0  0  0  0  0  0  0  0  0  0
   -5.7393    0.0000    0.0000 C   0  0  0  0  0  0  0  0  0  0  0  0
   -7.1627    0.0000    0.0000 C   0  0  0  0  0  0  0  0  0  0  0  0
   -7.2343    0.0000    0.0000 N   0  0  0  0  0  0  0  0  0  0  0  0
   -7.8386    0.0000    0.0000 O   0  0  0  0  0  0  0  0  0  0  0  0
    0.3422    0.0000    0.0000 N   0  0  0  0  0  0  0  0  0  0  0  0
    1.0229    0.0000    0.0000 C   0  0  0  0  0  0  0  0  0  0  0  0
    0.9330    0.0000    0.0000 O   0  0  0  0  0  0  0  0  0  0  0  0
    1.7784    0.0000    0.0000 C   0  0  0  0  0  0  0  0  0  0  0  0
    1.8406    0.0000    0.0000 C   0  0  0  0  0  0  0  0  0  0  0  0
    2.4614    0.0000    0.0000 N   0  0  0  0  0  0  0  0  0  0  0  0
    3.1491    0.0000    0.0000 C   0  0  0  0  0  0  0  0  0  0  0  0
    3.2063    0.0000    0.0000 O   0  0  0  0  0  0  0  0  0  0  0  0
    3.7695    0.0000    0.0000 C   0  0  0  0  0  0  0  0  0  0  0  0
    3.7542    0.0000    0.0000 C   0  0  0  0  0  0  0  0  0  0  0  0
    4.4165    0.0000    0.0000 N   0  0  0  0  0  0  0  0  0  0  0  0
    5.2586    0.0000    0.0000 C   0  0  0  0  0  0  0  0  0  0  0  0
    5.2207    0.0000    0.0000 O   0  0  0  0  0  0  0  0  0  0  0  0
    6.2324    0.0000    0.0000 C   0  0  0  0  0  0  0  0  0  0  0  0
    6.8369    0.0000    0.0000 C   0  0  0  0  0  0  0  0  0  0  0  0
    7.0399    0.0000    0.0000 N   0  0  0  0  0  0  0  0  0  0  0  0
    7.0506    0.0000    0.0000 C   0  0  0  0  0  0  0  0  0  0  0  0
    7.8386    0.0000    0.0000 O   0  0  0  0  0  0  0  0  0  0  0  0
    4.3069    0.0000    0.0000 C   0  0  0  0  0  0  0  0  0  0  0  0
    3.8371    0.0000    0.0000 C   0  0  0  0  0  0  0  0  0  0  0  0
    5.1291    0.0000    0.0000 O   0  0  0  0  0  0  0  0  0  0  0  0
    6.4736    0.0000    0.0000 C   0  0  0  0  0  0  0  0  0  0  0  0
    6.6869    0.0000    0.0000 C   0  0  0  0  0  0  0  0  0  0  0  0
    4.2334    0.0000    0.0000 C   0  0  0  0  0  0  0  0  0  0  0  0
    4.9488    0.0000    0.0000 C   0  0  0  0  0  0  0  0  0  0  0  0
    3.8960    0.0000    0.0000 O   0  0  0  0  0  0  0  0  0  0  0  0
    4.6441    0.0000    0.0000 C   0  0  0  0  0  0  0  0  0  0  0  0
    5.4691    0.0000    0.0000 C   0  0  0  0  0  0  0  0  0  0  0  0
    4.2298    0.0000    0.0000 O   0  0  0  0  0  0  0  0  0  0  0  0
    4.6286    0.0000    0.0000 C   0  0  0  0  0  0  0  0  0  0  0  0
    4.7473    0.0000    0.0000 O   0  0  0  0  0  0  0  0  0  0  0  0
  1  2  1  0      
  2  3  1  0      
  3  4  1  0      
  3  5  1  0      
  5  6  1  0      
  6  7  1  0      
  7  8  1  0      
  8  9  2  0      
  9 10  1  0      
 10 11  2  0      
 11 12  1  0      
 12 13  2  0      
 13 14  1  0      
 14 15  2  0      
 10 15  1  0      
 15 16  1  0      
 16 17  1  0      
 16 18  1  0      
 13 19  1  0      
 19 20  2  0      
 19 21  1  0      
 21 22  1  0      
 22 23  1  0      
 22 24  1  0      
 24 25  1  0      
 25 26  1  0      
 26 27  2  0      
 26 28  1  0      
 28 29  2  0      
 29 30  1  0      
 30 31  1  0      
 31 32  2  0      
 28 32  1  0      
 31 33  1  0      
 33 34  1  0      
 34 35  1  0      
 35 36  2  0      
 35 37  1  0      
 37 38  1  0      
 38 39  1  0      
 39 40  1  0      
 40 41  2  0      
 37 41  1  0      
 40 42  1  0      
 42 43  1  0      
 43 44  1  0      
 44 45  2  0      
 44 46  1  0      
 46 47  1  0      
 47 48  1  0      
 48 49  2  0      
 48 50  1  0      
 50 51  2  0      
 51 52  1  0      
 52 53  1  0      
 53 54  2  0      
 50 54  1  0      
 53 55  1  0      
 55 56  1  0      
 56 57  1  0      
 57 58  1  0      
 58 59  2  0      
 59 60  1  0      
 55 60  1  0      
 60 61  1  0      
 61 62  2  0      
 62 63  1  0      
 63 64  1  0      
 24 64  1  0      
 64 65  2  0      
 61 65  1  0      
 58 66  1  0      
 66 67  2  0      
 67 68  1  0      
 68 69  2  0      
 69 70  1  0      
 66 70  1  0      
 68 71  1  0      
 71 72  2  0      
 71 73  1  0      
 73 74  1  0      
 74 75  2  0      
 74 76  1  0      
 76 77  2  0      
 76 78  1  0      
 78 79  1  0      
 79 80  2  0      
 79 81  1  0      
 81 82  1  0      
 81 83  2  0      
 55 84  1  0      
 84 85  1  0      
 85 86  2  0      
 85 87  1  0      
 87 88  1  0      
 87 89  1  0      
 89 90  1  0      
 90 91  2  0      
 90 92  1  0      
 92 93  2  0      
 92 94  1  0      
 94 95  1  0      
 95 96  2  0      
 95 97  1  0      
 97 98  1  0      
 97 99  1  0      
 99100  1  0      
  5100  1  0      
100101  2  0      
 46102  1  0      
102103  1  0      
102104  1  0      
 42105  2  0      
105106  1  4      
 33107  1  0      
107108  1  0      
107109  1  0      
107110  1  0      
110111  1  0      
110112  1  0      
 11113  1  0      
  7113  1  0      
113114  1  0      
M  END
>  <Bioactivity>
Thiostrepton is a one of the CYCLIC PEPTIDES from Streptomyces that is active against gram-positive bacteria. In veterinary medicine, it has been used in mastitis caused by gram-negative organisms and
 in dermatologic disorders.

>  <CAS>
1393-48-2

>  <Col>
9

>  <Formula>
C72H85N19O18S5

>  <ID>
T1679

>  <Index>
428

>  <MOLENAME>
Thiostrepton

>  <MolWt>
1664.89

>  <Pathways>
DNA Damage/DNA Repair; Microbiology & Virology

>  <Plate>
PLATE 006

>  <QR code>
1151480290

>  <Receptor>
DNA synthesis

>  <Reference>
1. Kuiper EG, Conn GL. J Biol Chem. 2014 Sep 19;289(38):26189-200.

>  <Row>
C

>  <SMILES>
CCC(C)C1NC2C=CC3=C(N=C(C=C3C(C)O)C(=O)OC(C)C3NC(=O)C4=CSC(=N4)C(NC(=O)C4CSC(=N4)C(NC(=O)C(NC(=O)C4=CSC(=N4)C4(CCC(=NC4C4=CSC3=N4)C3=NC(=CS3)C(=O)NC(=C)C(=O)NC(=C)C(N)=O)NC(=O)C(C)NC(=O)C(=C)NC(=O)C(C)
NC1=O)C(C)O)=CC)C(C)(O)C(C)O)C2O

>  <Target>
Antibiotic; DNA/RNA Synthesis inhibitor

>  <Weight>
10.2mg

$$$$
Lab-1.sdf
  ChemDraw05232018482D

 23 26  0  0  0  0  0  0  0  0999 V2000
   -3.5105    0.0000    0.0000 C   0  0  0  0  0  0  0  0  0  0  0  0
   -2.6933    0.0000    0.0000 C   0  0  0  0  0  0  0  0  0  0  0  0
   -2.3824    0.0000    0.0000 O   0  0  0  0  0  0  0  0  0  0  0  0
   -2.1869    0.0000    0.0000 C   0  0  0  0  0  0  0  0  0  0  0  0
   -2.4162    0.0000    0.0000 C   0  0  0  0  0  0  0  0  0  0  0  0
   -1.7333    0.0000    0.0000 C   0  0  0  0  0  0  0  0  0  0  0  0
   -1.0820    0.0000    0.0000 C   0  0  0  0  0  0  0  0  0  0  0  0
   -0.2698    0.0000    0.0000 C   0  0  0  0  0  0  0  0  0  0  0  0
    0.0104    0.0000    0.0000 C   0  0  0  0  0  0  0  0  0  0  0  0
    0.8226    0.0000    0.0000 C   0  0  0  0  0  0  0  0  0  0  0  0
    1.3544    0.0000    0.0000 C   0  0  0  0  0  0  0  0  0  0  0  0
    2.1666    0.0000    0.0000 C   0  0  0  0  0  0  0  0  0  0  0  0
    2.6984    0.0000    0.0000 C   0  0  0  0  0  0  0  0  0  0  0  0
    3.5105    0.0000    0.0000 O   0  0  0  0  0  0  0  0  0  0  0  0
    2.4181    0.0000    0.0000 C   0  0  0  0  0  0  0  0  0  0  0  0
    1.6059    0.0000    0.0000 C   0  0  0  0  0  0  0  0  0  0  0  0
    1.0741    0.0000    0.0000 C   0  0  0  0  0  0  0  0  0  0  0  0
    0.7938    0.0000    0.0000 C   0  0  0  0  0  0  0  0  0  0  0  0
    0.2620    0.0000    0.0000 C   0  0  0  0  0  0  0  0  0  0  0  0
   -0.0183    0.0000    0.0000 C   0  0  0  0  0  0  0  0  0  0  0  0
   -0.8304    0.0000    0.0000 C   0  0  0  0  0  0  0  0  0  0  0  0
   -1.3623    0.0000    0.0000 C   0  0  0  0  0  0  0  0  0  0  0  0
   -1.7221    0.0000    0.0000 C   0  0  0  0  0  0  0  0  0  0  0  0
  1  2  1  0      
  2  3  1  0      
  2  4  1  0      
  4  5  1  0      
  5  6  1  0      
  6  7  1  0      
  7  8  1  0      
  8  9  1  0      
  9 10  1  0      
 10 11  1  0      
 11 12  1  0      
 12 13  1  0      
 13 14  1  0      
 13 15  1  0      
 15 16  1  0      
 16 17  1  0      
 11 17  1  0      
 17 18  1  0      
 17 19  1  0      
  8 19  1  0      
 19 20  1  0      
 20 21  1  0      
 21 22  1  0      
  4 22  1  0      
  7 22  1  0      
 22 23  1  0      
M  END
>  <Bioactivity>
An inactive metabolite of PROGESTERONE by reduction at C5, C3, and C20 position. Pregnanediol has two hydroxyl groups, at 3-alpha and 20-alpha. It is detectable in URINE after OVULATION and is found i
n great quantities in the pregnancy urine. 

>  <CAS>
80-92-2

>  <Col>
10

>  <Formula>
C21H36O2

>  <ID>
T1688

>  <Index>
429

>  <MOLENAME>
5Beta-Pregnane-3Alpha,20alpha-Diol

>  <MolWt>
320.52

>  <Pathways>
Endocrinology/ Hormones

>  <Plate>
PLATE 006

>  <QR code>
1151480289

>  <Receptor>
ER

>  <Reference>
1. Blackwell LF, et al. Hum Reprod. 2013 Dec;28(12):3306-15. 

>  <Row>
C

>  <SMILES>
CC(O)C1CCC2C3CCC4CC(O)CCC4(C)C3CCC12C

>  <Target>
Estrogen/Progestogen Receptor agonist

>  <Weight>
9.9mg

$$$$
Lab-1.sdf
  ChemDraw05232018482D

 12 13  0  0  0  0  0  0  0  0999 V2000
   -2.1433    0.0000    0.0000 O   0  0  0  0  0  0  0  0  0  0  0  0
   -1.4290    0.0000    0.0000 C   0  0  0  0  0  0  0  0  0  0  0  0
   -0.7145    0.0000    0.0000 C   0  0  0  0  0  0  0  0  0  0  0  0
   -0.0000    0.0000    0.0000 C   0  0  0  0  0  0  0  0  0  0  0  0
   -0.0000    0.0000    0.0000 C   0  0  0  0  0  0  0  0  0  0  0  0
   -0.7145    0.0000    0.0000 C   0  0  0  0  0  0  0  0  0  0  0  0
   -1.4290    0.0000    0.0000 C   0  0  0  0  0  0  0  0  0  0  0  0
    0.7144    0.0000    0.0000 C   0  0  0  0  0  0  0  0  0  0  0  0
    1.4289    0.0000    0.0000 C   0  0  0  0  0  0  0  0  0  0  0  0
    1.4289    0.0000    0.0000 C   0  0  0  0  0  0  0  0  0  0  0  0
    2.1433    0.0000    0.0000 O   0  0  0  0  0  0  0  0  0  0  0  0
    0.7144    0.0000    0.0000 O   0  0  0  0  0  0  0  0  0  0  0  0
  1  2  1  0      
  2  3  2  0      
  3  4  1  0      
  4  5  2  0      
  5  6  1  0      
  6  7  2  0      
  2  7  1  0      
  5  8  1  0      
  8  9  2  0      
  9 10  1  0      
 10 11  2  0      
 10 12  1  0      
  4 12  1  0      
M  END
>  <Bioactivity>
It is a widespread natural product of the coumarin family. It has been reported to have antioxidant properties.

>  <CAS>
93-35-6

>  <Col>
11

>  <Formula>
C9H6O3

>  <ID>
T1693

>  <Index>
430

>  <MOLENAME>
7-Hydroxycoumarin

>  <MolWt>
162.14

>  <Pathways>
Immunology/Inflammation

>  <Plate>
PLATE 006

>  <QR code>
1151480288

>  <Receptor>
Antioxidant

>  <Reference>
1. Kabeya LM, et al. Chem Biol Interact. 2013 Oct 25;206(1):63-75. 

>  <Row>
C

>  <SMILES>
OC1=CC2=C(C=C1)C=CC(=O)O2

>  <Target>
ROS inhibitor

>  <Weight>
10.2mg

$$$$
Lab-1.sdf
  ChemDraw05232018482D

 29 33  0  0  0  0  0  0  0  0999 V2000
    0.9224    0.0000    0.0000 C   0  0  0  0  0  0  0  0  0  0  0  0
    1.4744    0.0000    0.0000 C   0  0  0  0  0  0  0  0  0  0  0  0
    1.2195    0.0000    0.0000 C   0  0  0  0  0  0  0  0  0  0  0  0
    1.7715    0.0000    0.0000 C   0  0  0  0  0  0  0  0  0  0  0  0
    2.5786    0.0000    0.0000 C   0  0  0  0  0  0  0  0  0  0  0  0
    3.1306    0.0000    0.0000 C   0  0  0  0  0  0  0  0  0  0  0  0
    3.9376    0.0000    0.0000 O   0  0  0  0  0  0  0  0  0  0  0  0
    2.8757    0.0000    0.0000 C   0  0  0  0  0  0  0  0  0  0  0  0
    2.0686    0.0000    0.0000 C   0  0  0  0  0  0  0  0  0  0  0  0
    1.5166    0.0000    0.0000 C   0  0  0  0  0  0  0  0  0  0  0  0
    0.7096    0.0000    0.0000 N   0  0  0  0  0  0  0  0  0  0  0  0
    0.1575    0.0000    0.0000 C   0  0  0  0  0  0  0  0  0  0  0  0
    0.4125    0.0000    0.0000 C   0  0  0  0  0  0  0  0  0  0  0  0
   -0.2550    0.0000    0.0000 C   0  0  0  0  0  0  0  0  0  0  0  0
   -0.9224    0.0000    0.0000 N   0  0  0  0  0  0  0  0  0  0  0  0
   -0.6675    0.0000    0.0000 C   0  0  0  0  0  0  0  0  0  0  0  0
   -1.2195    0.0000    0.0000 C   0  0  0  0  0  0  0  0  0  0  0  0
   -2.0265    0.0000    0.0000 C   0  0  0  0  0  0  0  0  0  0  0  0
   -2.2814    0.0000    0.0000 C   0  0  0  0  0  0  0  0  0  0  0  0
   -3.0885    0.0000    0.0000 C   0  0  0  0  0  0  0  0  0  0  0  0
   -3.6405    0.0000    0.0000 O   0  0  0  0  0  0  0  0  0  0  0  0
   -3.3856    0.0000    0.0000 C   0  0  0  0  0  0  0  0  0  0  0  0
   -3.9376    0.0000    0.0000 O   0  0  0  0  0  0  0  0  0  0  0  0
   -2.5786    0.0000    0.0000 C   0  0  0  0  0  0  0  0  0  0  0  0
   -2.7218    0.0000    0.0000 O   0  0  0  0  0  0  0  0  0  0  0  0
   -1.9850    0.0000    0.0000 C   0  0  0  0  0  0  0  0  0  0  0  0
   -1.1920    0.0000    0.0000 C   0  0  0  0  0  0  0  0  0  0  0  0
   -1.7294    0.0000    0.0000 C   0  0  0  0  0  0  0  0  0  0  0  0
   -1.9843    0.0000    0.0000 O   0  0  0  0  0  0  0  0  0  0  0  0
  1  2  1  0      
  2  3  1  0      
  3  4  2  0      
  4  5  1  0      
  5  6  2  0      
  6  7  1  0      
  6  8  1  0      
  8  9  2  0      
  9 10  1  0      
  4 10  1  0      
 10 11  2  0      
 11 12  1  0      
 12 13  2  0      
  3 13  1  0      
 13 14  1  0      
 14 15  1  0      
 15 16  1  0      
 12 16  1  0      
 16 17  2  0      
 17 18  1  0      
 18 19  2  0      
 19 20  1  0      
 20 21  1  0      
 21 22  1  0      
 22 23  2  0      
 22 24  1  0      
 18 24  1  0      
 24 25  1  0      
 24 26  1  0      
 26 27  1  0      
 19 28  1  0      
 15 28  1  0      
 28 29  2  0      
M  END
>  <Bioactivity>
LE-SN38 is NeoPharm¡¯s NeoLipid liposomal formulation of SN-38, the active metabolite of irinotecan (Camptosar), a chemotherapeutic pro-drug approved for the treatment of advanced colorectal Y.

>  <CAS>
86639-52-3

>  <Col>
2

>  <Formula>
C22H20N2O5

>  <ID>
T1703

>  <Index>
431

>  <MOLENAME>
SN-38

>  <MolWt>
392.4

>  <Pathways>
DNA Damage/DNA Repair

>  <Plate>
PLATE 006

>  <QR code>
1151480276

>  <Receptor>
DNA topoisomerase I

>  <Reference>
1. Goldwirt L, et al. J Pharm Biomed Anal. 2012 Jul;66:325-33.

>  <Row>
D

>  <SMILES>
CCC1=C2C=C(O)C=CC2=NC2=C1CN1C2=CC2=C(COC(=O)C2(O)CC)C1=O

>  <Target>
Topoisomerase inhibitor

>  <Weight>
10.3mg

$$$$
Lab-1.sdf
  ChemDraw05232018482D

 22 24  0  0  0  0  0  0  0  0999 V2000
   -3.2151    0.0000    0.0000 C   0  0  0  0  0  0  0  0  0  0  0  0
   -3.2151    0.0000    0.0000 O   0  0  0  0  0  0  0  0  0  0  0  0
   -2.5006    0.0000    0.0000 C   0  0  0  0  0  0  0  0  0  0  0  0
   -2.5006    0.0000    0.0000 C   0  0  0  0  0  0  0  0  0  0  0  0
   -3.2151    0.0000    0.0000 O   0  0  0  0  0  0  0  0  0  0  0  0
   -1.7862    0.0000    0.0000 C   0  0  0  0  0  0  0  0  0  0  0  0
   -1.0717    0.0000    0.0000 C   0  0  0  0  0  0  0  0  0  0  0  0
   -1.0717    0.0000    0.0000 C   0  0  0  0  0  0  0  0  0  0  0  0
   -1.7862    0.0000    0.0000 C   0  0  0  0  0  0  0  0  0  0  0  0
   -0.3572    0.0000    0.0000 C   0  0  0  0  0  0  0  0  0  0  0  0
   -0.3572    0.0000    0.0000 C   0  0  0  0  0  0  0  0  0  0  0  0
    0.3572    0.0000    0.0000 C   0  0  0  0  0  0  0  0  0  0  0  0
    0.3572    0.0000    0.0000 O   0  0  0  0  0  0  0  0  0  0  0  0
    1.0717    0.0000    0.0000 C   0  0  0  0  0  0  0  0  0  0  0  0
    1.7862    0.0000    0.0000 C   0  0  0  0  0  0  0  0  0  0  0  0
    1.7862    0.0000    0.0000 O   0  0  0  0  0  0  0  0  0  0  0  0
    2.5007    0.0000    0.0000 C   0  0  0  0  0  0  0  0  0  0  0  0
    2.5007    0.0000    0.0000 C   0  0  0  0  0  0  0  0  0  0  0  0
    3.2151    0.0000    0.0000 O   0  0  0  0  0  0  0  0  0  0  0  0
    1.7862    0.0000    0.0000 C   0  0  0  0  0  0  0  0  0  0  0  0
    1.0717    0.0000    0.0000 C   0  0  0  0  0  0  0  0  0  0  0  0
    0.3572    0.0000    0.0000 O   0  0  0  0  0  0  0  0  0  0  0  0
  1  2  1  0      
  2  3  1  0      
  3  4  2  0      
  4  5  1  0      
  4  6  1  0      
  6  7  2  0      
  7  8  1  0      
  8  9  2  0      
  3  9  1  0      
  7 10  1  0      
 10 11  2  0      
 11 12  1  0      
 12 13  2  0      
 12 14  1  0      
 14 15  2  0      
 15 16  1  0      
 15 17  1  0      
 17 18  2  0      
 18 19  1  0      
 18 20  1  0      
 20 21  2  0      
 14 21  1  0      
 21 22  1  0      
 10 22  1  0      
M  END
>  <Bioactivity>
Diosmetin is an O-methylated flavone, a chemical compound that can be found in the Caucasian vetch[1]It has been found to act as a weak TrkB receptor agonist.

>  <CAS>
520-34-3

>  <Col>
3

>  <Formula>
C16H12O6

>  <ID>
T1704

>  <Index>
432

>  <MOLENAME>
Diosmetin

>  <MolWt>
300.26

>  <Pathways>
Tyrosine Kinase/Adaptors

>  <Plate>
PLATE 006

>  <QR code>
1151480277

>  <Receptor>
TrkB receptor

>  <Reference>
1. Jang SW, et al. Proc Natl Acad Sci U S A. 2010 Feb 9;107(6):2687-92. 

>  <Row>
D

>  <SMILES>
COC1=C(O)C=C(C=C1)C1=CC(=O)C2=C(O)C=C(O)C=C2O1

>  <Target>
Trk receptor agonist

>  <Weight>
10.1mg

$$$$
Lab-1.sdf
  ChemDraw05232018482D

104112  0  0  0  0  0  0  0  0999 V2000
    0.3572    0.0000    0.0000 C   0  0  0  0  0  0  0  0  0  0  0  0
    1.0717    0.0000    0.0000 O   0  0  0  0  0  0  0  0  0  0  0  0
    1.0717    0.0000    0.0000 C   0  0  0  0  0  0  0  0  0  0  0  0
    0.3572    0.0000    0.0000 O   0  0  0  0  0  0  0  0  0  0  0  0
    1.7862    0.0000    0.0000 N   0  0  0  0  0  0  0  0  0  0  0  0
    1.7862    0.0000    0.0000 C   0  0  0  0  0  0  0  0  0  0  0  0
    1.0717    0.0000    0.0000 C   0  0  0  0  0  0  0  0  0  0  0  0
    0.3572    0.0000    0.0000 O   0  0  0  0  0  0  0  0  0  0  0  0
    1.0717    0.0000    0.0000 C   0  0  0  0  0  0  0  0  0  0  0  0
    0.3572    0.0000    0.0000 O   0  0  0  0  0  0  0  0  0  0  0  0
    0.3572    0.0000    0.0000 C   0  0  0  0  0  0  0  0  0  0  0  0
    1.0717    0.0000    0.0000 O   0  0  0  0  0  0  0  0  0  0  0  0
    1.0717    0.0000    0.0000 C   0  0  0  0  0  0  0  0  0  0  0  0
    1.7862    0.0000    0.0000 C   0  0  0  0  0  0  0  0  0  0  0  0
    1.7862    0.0000    0.0000 O   0  0  0  0  0  0  0  0  0  0  0  0
    0.3572    0.0000    0.0000 C   0  0  0  0  0  0  0  0  0  0  0  0
    0.3572    0.0000    0.0000 O   0  0  0  0  0  0  0  0  0  0  0  0
   -0.3572    0.0000    0.0000 C   0  0  0  0  0  0  0  0  0  0  0  0
   -1.0717    0.0000    0.0000 O   0  0  0  0  0  0  0  0  0  0  0  0
   -1.7862    0.0000    0.0000 C   0  0  0  0  0  0  0  0  0  0  0  0
   -2.5006    0.0000    0.0000 C   0  0  0  0  0  0  0  0  0  0  0  0
   -3.2151    0.0000    0.0000 O   0  0  0  0  0  0  0  0  0  0  0  0
   -1.7862    0.0000    0.0000 C   0  0  0  0  0  0  0  0  0  0  0  0
   -2.5006    0.0000    0.0000 O   0  0  0  0  0  0  0  0  0  0  0  0
   -2.5006    0.0000    0.0000 C   0  0  0  0  0  0  0  0  0  0  0  0
   -1.7862    0.0000    0.0000 O   0  0  0  0  0  0  0  0  0  0  0  0
   -1.7862    0.0000    0.0000 C   0  0  0  0  0  0  0  0  0  0  0  0
   -1.0717    0.0000    0.0000 C   0  0  0  0  0  0  0  0  0  0  0  0
   -1.0717    0.0000    0.0000 O   0  0  0  0  0  0  0  0  0  0  0  0
   -2.5006    0.0000    0.0000 C   0  0  0  0  0  0  0  0  0  0  0  0
   -2.5006    0.0000    0.0000 O   0  0  0  0  0  0  0  0  0  0  0  0
   -3.2151    0.0000    0.0000 C   0  0  0  0  0  0  0  0  0  0  0  0
   -3.9296    0.0000    0.0000 O   0  0  0  0  0  0  0  0  0  0  0  0
   -4.6441    0.0000    0.0000 C   0  0  0  0  0  0  0  0  0  0  0  0
   -5.3585    0.0000    0.0000 C   0  0  0  0  0  0  0  0  0  0  0  0
   -6.0730    0.0000    0.0000 O   0  0  0  0  0  0  0  0  0  0  0  0
   -4.6441    0.0000    0.0000 C   0  0  0  0  0  0  0  0  0  0  0  0
   -5.3585    0.0000    0.0000 O   0  0  0  0  0  0  0  0  0  0  0  0
   -5.3585    0.0000    0.0000 C   0  0  0  0  0  0  0  0  0  0  0  0
   -4.6441    0.0000    0.0000 O   0  0  0  0  0  0  0  0  0  0  0  0
   -4.6441    0.0000    0.0000 C   0  0  0  0  0  0  0  0  0  0  0  0
   -3.9296    0.0000    0.0000 C   0  0  0  0  0  0  0  0  0  0  0  0
   -3.9296    0.0000    0.0000 O   0  0  0  0  0  0  0  0  0  0  0  0
   -5.3585    0.0000    0.0000 C   0  0  0  0  0  0  0  0  0  0  0  0
   -5.3585    0.0000    0.0000 O   0  0  0  0  0  0  0  0  0  0  0  0
   -6.0730    0.0000    0.0000 C   0  0  0  0  0  0  0  0  0  0  0  0
   -6.7875    0.0000    0.0000 O   0  0  0  0  0  0  0  0  0  0  0  0
   -7.5019    0.0000    0.0000 C   0  0  0  0  0  0  0  0  0  0  0  0
   -8.2164    0.0000    0.0000 C   0  0  0  0  0  0  0  0  0  0  0  0
   -8.9309    0.0000    0.0000 O   0  0  0  0  0  0  0  0  0  0  0  0
   -7.5019    0.0000    0.0000 C   0  0  0  0  0  0  0  0  0  0  0  0
   -8.2164    0.0000    0.0000 O   0  0  0  0  0  0  0  0  0  0  0  0
   -6.7875    0.0000    0.0000 C   0  0  0  0  0  0  0  0  0  0  0  0
   -6.7875    0.0000    0.0000 O   0  0  0  0  0  0  0  0  0  0  0  0
   -6.0730    0.0000    0.0000 C   0  0  0  0  0  0  0  0  0  0  0  0
   -5.3585    0.0000    0.0000 N   0  0  0  0  0  0  0  0  0  0  0  0
   -6.0730    0.0000    0.0000 C   0  0  0  0  0  0  0  0  0  0  0  0
   -6.7875    0.0000    0.0000 O   0  0  0  0  0  0  0  0  0  0  0  0
   -6.0730    0.0000    0.0000 C   0  0  0  0  0  0  0  0  0  0  0  0
   -6.7875    0.0000    0.0000 N   0  0  0  0  0  0  0  0  0  0  0  0
   -3.9296    0.0000    0.0000 C   0  0  0  0  0  0  0  0  0  0  0  0
   -3.9296    0.0000    0.0000 O   0  0  0  0  0  0  0  0  0  0  0  0
   -3.2151    0.0000    0.0000 C   0  0  0  0  0  0  0  0  0  0  0  0
   -2.5006    0.0000    0.0000 N   0  0  0  0  0  0  0  0  0  0  0  0
   -3.2151    0.0000    0.0000 C   0  0  0  0  0  0  0  0  0  0  0  0
   -3.9296    0.0000    0.0000 O   0  0  0  0  0  0  0  0  0  0  0  0
   -3.2151    0.0000    0.0000 C   0  0  0  0  0  0  0  0  0  0  0  0
   -3.9296    0.0000    0.0000 N   0  0  0  0  0  0  0  0  0  0  0  0
   -1.0717    0.0000    0.0000 C   0  0  0  0  0  0  0  0  0  0  0  0
   -1.0717    0.0000    0.0000 O   0  0  0  0  0  0  0  0  0  0  0  0
   -0.3572    0.0000    0.0000 C   0  0  0  0  0  0  0  0  0  0  0  0
    0.3572    0.0000    0.0000 N   0  0  0  0  0  0  0  0  0  0  0  0
   -0.3572    0.0000    0.0000 C   0  0  0  0  0  0  0  0  0  0  0  0
   -1.0717    0.0000    0.0000 O   0  0  0  0  0  0  0  0  0  0  0  0
   -0.3572    0.0000    0.0000 C   0  0  0  0  0  0  0  0  0  0  0  0
   -1.0717    0.0000    0.0000 N   0  0  0  0  0  0  0  0  0  0  0  0
    1.7862    0.0000    0.0000 C   0  0  0  0  0  0  0  0  0  0  0  0
    1.7862    0.0000    0.0000 C   0  0  0  0  0  0  0  0  0  0  0  0
    2.5007    0.0000    0.0000 O   0  0  0  0  0  0  0  0  0  0  0  0
    2.5007    0.0000    0.0000 O   0  0  0  0  0  0  0  0  0  0  0  0
    2.5007    0.0000    0.0000 C   0  0  0  0  0  0  0  0  0  0  0  0
    3.2151    0.0000    0.0000 O   0  0  0  0  0  0  0  0  0  0  0  0
    3.9296    0.0000    0.0000 C   0  0  0  0  0  0  0  0  0  0  0  0
    3.9296    0.0000    0.0000 C   0  0  0  0  0  0  0  0  0  0  0  0
    3.2151    0.0000    0.0000 O   0  0  0  0  0  0  0  0  0  0  0  0
    4.6441    0.0000    0.0000 C   0  0  0  0  0  0  0  0  0  0  0  0
    4.6441    0.0000    0.0000 N   0  0  0  0  0  0  0  0  0  0  0  0
    5.3585    0.0000    0.0000 C   0  0  0  0  0  0  0  0  0  0  0  0
    6.0730    0.0000    0.0000 O   0  0  0  0  0  0  0  0  0  0  0  0
    6.7875    0.0000    0.0000 C   0  0  0  0  0  0  0  0  0  0  0  0
    6.7875    0.0000    0.0000 C   0  0  0  0  0  0  0  0  0  0  0  0
    6.0730    0.0000    0.0000 O   0  0  0  0  0  0  0  0  0  0  0  0
    7.5020    0.0000    0.0000 C   0  0  0  0  0  0  0  0  0  0  0  0
    7.5020    0.0000    0.0000 N   0  0  0  0  0  0  0  0  0  0  0  0
    8.2164    0.0000    0.0000 C   0  0  0  0  0  0  0  0  0  0  0  0
    8.9309    0.0000    0.0000 O   0  0  0  0  0  0  0  0  0  0  0  0
    8.2164    0.0000    0.0000 O   0  0  0  0  0  0  0  0  0  0  0  0
    7.5020    0.0000    0.0000 C   0  0  0  0  0  0  0  0  0  0  0  0
    7.5020    0.0000    0.0000 C   0  0  0  0  0  0  0  0  0  0  0  0
    8.2164    0.0000    0.0000 O   0  0  0  0  0  0  0  0  0  0  0  0
    5.3585    0.0000    0.0000 O   0  0  0  0  0  0  0  0  0  0  0  0
    4.6441    0.0000    0.0000 C   0  0  0  0  0  0  0  0  0  0  0  0
    4.6441    0.0000    0.0000 C   0  0  0  0  0  0  0  0  0  0  0  0
    3.9296    0.0000    0.0000 O   0  0  0  0  0  0  0  0  0  0  0  0
  1  2  1  0      
  2  3  1  0      
  3  4  2  0      
  3  5  1  0      
  5  6  1  0      
  6  7  1  0      
  7  8  1  0      
  7  9  1  0      
  9 10  1  0      
 10 11  1  0      
 11 12  1  0      
 12 13  1  0      
 13 14  1  0      
 14 15  1  0      
 13 16  1  0      
 16 17  1  0      
 17 18  1  0      
 18 19  1  0      
 19 20  1  0      
 20 21  1  0      
 21 22  1  0      
 20 23  1  0      
 23 24  1  0      
 24 25  1  0      
 25 26  1  0      
 26 27  1  0      
 27 28  1  0      
 28 29  1  0      
 27 30  1  0      
 30 31  1  0      
 31 32  1  0      
 32 33  1  0      
 33 34  1  0      
 34 35  1  0      
 35 36  1  0      
 34 37  1  0      
 37 38  1  0      
 38 39  1  0      
 39 40  1  0      
 40 41  1  0      
 41 42  1  0      
 42 43  1  0      
 41 44  1  0      
 44 45  1  0      
 45 46  1  0      
 46 47  1  0      
 47 48  1  0      
 48 49  1  0      
 49 50  1  0      
 48 51  1  0      
 51 52  1  0      
 51 53  1  0      
 53 54  1  0      
 53 55  1  0      
 46 55  1  0      
 55 56  1  0      
 44 57  1  0      
 57 58  1  0      
 57 59  1  0      
 39 59  1  0      
 59 60  1  0      
 37 61  1  0      
 61 62  1  0      
 61 63  1  0      
 32 63  1  0      
 63 64  1  0      
 30 65  1  0      
 65 66  1  0      
 65 67  1  0      
 25 67  1  0      
 67 68  1  0      
 23 69  1  0      
 69 70  1  0      
 69 71  1  0      
 18 71  1  0      
 71 72  1  0      
 16 73  1  0      
 73 74  1  0      
 73 75  1  0      
 11 75  1  0      
 75 76  1  0      
  9 77  1  0      
 77 78  1  0      
 78 79  1  0      
 77 80  1  0      
 80 81  1  0      
  6 81  1  0      
 81 82  1  0      
 82 83  1  0      
 83 84  1  0      
 84 85  1  0      
 84 86  1  0      
 86 87  1  0      
 86 88  1  0      
 88 89  1  0      
 89 90  1  0      
 90 91  1  0      
 91 92  1  0      
 91 93  1  0      
 93 94  1  0      
 93 95  1  0      
 95 96  1  0      
 95 97  1  0      
 97 98  1  0      
 90 98  1  0      
 98 99  1  0      
 99100  1  0      
 88101  1  0      
101102  1  0      
 83102  1  0      
102103  1  0      
103104  1  0      
M  END
>  <Bioactivity>
Chitosan is a linear polysaccharide composed of randomly distributed ¦Â-(1-4)-linked D-glucosamine (deacetylated unit) and N-acetyl-D-glucosamine

>  <CAS>
9012-76-4

>  <Col>
4

>  <Formula>
C6H11NO4X2

>  <ID>
T1715

>  <Index>
433

>  <MOLENAME>
Chitosan

>  <MolWt>
161.16

>  <Pathways>
Microbiology & Virology

>  <Plate>
PLATE 006

>  <QR code>
1151480278

>  <Receptor>
Antibacterial

>  <Reference>
1. Kean T, et al. J Control Release. 2005 Apr 18;103(3):643-53.

>  <Row>
D

>  <SMILES>
COC(=O)NC1C(O)C(OC2OC(CO)C(OC3OC(CO)C(OC4OC(CO)C(OC5OC(CO)C(OC6OC(CO)C(OC7OC(CO)C(O)C(O)C7N)C(O)C6N)C(O)C5N)C(O)C4N)C(O)C3N)C(O)C2N)C(CO)OC1OC1C(O)C(N)C(OC2C(O)C(N)C(O)OC2CO)OC1CO

>  <Target>
Antibacterial

>  <Weight>
10.1mg

$$$$
Lab-1.sdf
  ChemDraw05232018482D

 18 20  0  0  0  0  0  0  0  0999 V2000
   -0.8053    0.0000    0.0000 O   0  0  0  0  0  0  0  0  0  0  0  0
   -0.2533    0.0000    0.0000 C   0  0  0  0  0  0  0  0  0  0  0  0
   -0.5082    0.0000    0.0000 C   0  0  0  0  0  0  0  0  0  0  0  0
   -0.0233    0.0000    0.0000 O   0  0  0  0  0  0  0  0  0  0  0  0
   -0.5082    0.0000    0.0000 C   0  0  0  0  0  0  0  0  0  0  0  0
   -1.2929    0.0000    0.0000 C   0  0  0  0  0  0  0  0  0  0  0  0
   -1.2929    0.0000    0.0000 C   0  0  0  0  0  0  0  0  0  0  0  0
   -1.9603    0.0000    0.0000 O   0  0  0  0  0  0  0  0  0  0  0  0
   -0.2533    0.0000    0.0000 N   0  0  0  0  0  0  0  0  0  0  0  0
   -0.7382    0.0000    0.0000 C   0  0  0  0  0  0  0  0  0  0  0  0
   -0.2533    0.0000    0.0000 N   0  0  0  0  0  0  0  0  0  0  0  0
    0.5313    0.0000    0.0000 C   0  0  0  0  0  0  0  0  0  0  0  0
    0.5313    0.0000    0.0000 C   0  0  0  0  0  0  0  0  0  0  0  0
    1.2458    0.0000    0.0000 N   0  0  0  0  0  0  0  0  0  0  0  0
    1.9603    0.0000    0.0000 C   0  0  0  0  0  0  0  0  0  0  0  0
    1.9603    0.0000    0.0000 N   0  0  0  0  0  0  0  0  0  0  0  0
    1.2458    0.0000    0.0000 C   0  0  0  0  0  0  0  0  0  0  0  0
    1.2458    0.0000    0.0000 O   0  0  0  0  0  0  0  0  0  0  0  0
  1  2  1  0      
  2  3  1  0      
  3  4  1  0      
  4  5  1  0      
  5  6  1  0      
  6  7  1  0      
  3  7  1  0      
  7  8  1  0      
  5  9  1  0      
  9 10  1  0      
 10 11  2  0      
 11 12  1  0      
 12 13  2  0      
  9 13  1  0      
 13 14  1  0      
 14 15  1  0      
 15 16  2  0      
 16 17  1  0      
 12 17  1  0      
 17 18  2  0      
M  END
>  <Bioactivity>
it is used to treat HIV infection with other antiviral drugs. 

>  <CAS>
890-38-0

>  <Col>
5

>  <Formula>
C10H12N4O4

>  <ID>
T1709

>  <Index>
434

>  <MOLENAME>
2'-Deoxyinosine

>  <MolWt>
252.23

>  <Pathways>
Others

>  <Plate>
PLATE 006

>  <QR code>
1151480279

>  <Receptor>
Others

>  <Reference>
1. Baumann T, et al. BMC Biotechnol. 2013 Oct 4;13:81.

>  <Row>
D

>  <SMILES>
OCC1OC(CC1O)N1C=NC2=C1NC=NC2=O

>  <Target>
Others

>  <Weight>
10.1mg

$$$$
Lab-1.sdf
  ChemDraw05232018482D

 27 29  0  0  0  0  0  0  0  0999 V2000
    0.8872    0.0000    0.0000 N   0  0  0  0  0  0  0  0  0  0  0  0
    0.8872    0.0000    0.0000 C   0  0  0  0  0  0  0  0  0  0  0  0
    1.6017    0.0000    0.0000 N   0  0  0  0  0  0  0  0  0  0  0  0
    1.6017    0.0000    0.0000 C   0  0  0  0  0  0  0  0  0  0  0  0
    0.8872    0.0000    0.0000 N   0  0  0  0  0  0  0  0  0  0  0  0
    0.1728    0.0000    0.0000 C   0  0  0  0  0  0  0  0  0  0  0  0
    0.1728    0.0000    0.0000 C   0  0  0  0  0  0  0  0  0  0  0  0
   -0.6119    0.0000    0.0000 N   0  0  0  0  0  0  0  0  0  0  0  0
   -1.0968    0.0000    0.0000 C   0  0  0  0  0  0  0  0  0  0  0  0
   -0.6119    0.0000    0.0000 N   0  0  0  0  0  0  0  0  0  0  0  0
   -0.8668    0.0000    0.0000 C   0  0  0  0  0  0  0  0  0  0  0  0
   -0.3819    0.0000    0.0000 O   0  0  0  0  0  0  0  0  0  0  0  0
   -0.8668    0.0000    0.0000 C   0  0  0  0  0  0  0  0  0  0  0  0
   -0.6119    0.0000    0.0000 C   0  0  0  0  0  0  0  0  0  0  0  0
    0.1951    0.0000    0.0000 O   0  0  0  0  0  0  0  0  0  0  0  0
    0.4500    0.0000    0.0000 P   0  0  0  0  0  0  0  0  0  0  0  0
   -0.3346    0.0000    0.0000 O   0  0  0  0  0  0  0  0  0  0  0  0
    1.2347    0.0000    0.0000 O   0  0  0  0  0  0  0  0  0  0  0  0
    0.7050    0.0000    0.0000 O   0  0  0  0  0  0  0  0  0  0  0  0
    1.5120    0.0000    0.0000 P   0  0  0  0  0  0  0  0  0  0  0  0
    2.3189    0.0000    0.0000 O   0  0  0  0  0  0  0  0  0  0  0  0
    1.3404    0.0000    0.0000 O   0  0  0  0  0  0  0  0  0  0  0  0
    1.6835    0.0000    0.0000 O   0  0  0  0  0  0  0  0  0  0  0  0
   -1.6514    0.0000    0.0000 C   0  0  0  0  0  0  0  0  0  0  0  0
   -2.3189    0.0000    0.0000 O   0  0  0  0  0  0  0  0  0  0  0  0
   -1.6514    0.0000    0.0000 C   0  0  0  0  0  0  0  0  0  0  0  0
   -2.3189    0.0000    0.0000 O   0  0  0  0  0  0  0  0  0  0  0  0
  1  2  1  0      
  2  3  2  0      
  3  4  1  0      
  4  5  2  0      
  5  6  1  0      
  6  7  2  0      
  2  7  1  0      
  7  8  1  0      
  8  9  2  0      
  9 10  1  0      
  6 10  1  0      
 10 11  1  0      
 11 12  1  0      
 12 13  1  0      
 13 14  1  0      
 14 15  1  0      
 15 16  1  0      
 16 17  1  0      
 16 18  2  0      
 16 19  1  0      
 19 20  1  0      
 20 21  1  0      
 20 22  1  0      
 20 23  2  0      
 13 24  1  0      
 24 25  1  0      
 24 26  1  0      
 11 26  1  0      
 26 27  1  0      
M  END
>  <Bioactivity>
Adenosine 5'-(trihydrogen diphosphate). An adenine nucleotide containing two phosphate groups esterified to the sugar moiety at the 5'-position.

>  <CAS>
58-64-0

>  <Col>
6

>  <Formula>
C10H15N5O10P2

>  <ID>
T1723

>  <Index>
435

>  <MOLENAME>
ADP

>  <MolWt>
427.2

>  <Pathways>
Others

>  <Plate>
PLATE 006

>  <QR code>
1151480280

>  <Receptor>
Others

>  <Reference>
1. Choi JH, et al. J Stroke Cerebrovasc Dis. 2014 Mar;23(3):e215-20. 

>  <Row>
D

>  <SMILES>
NC1=NC=NC2=C1N=CN2C1OC(COP(O)(=O)OP(O)(O)=O)C(O)C1O

>  <Target>
Others

>  <Weight>
10.3mg

$$$$
Lab-1.sdf
  ChemDraw05232018482D

 23 25  0  0  0  0  0  0  0  0999 V2000
    1.2458    0.0000    0.0000 N   0  0  0  0  0  0  0  0  0  0  0  0
    1.2458    0.0000    0.0000 C   0  0  0  0  0  0  0  0  0  0  0  0
    1.9603    0.0000    0.0000 N   0  0  0  0  0  0  0  0  0  0  0  0
    1.9603    0.0000    0.0000 C   0  0  0  0  0  0  0  0  0  0  0  0
    1.2458    0.0000    0.0000 N   0  0  0  0  0  0  0  0  0  0  0  0
    0.5314    0.0000    0.0000 C   0  0  0  0  0  0  0  0  0  0  0  0
    0.5314    0.0000    0.0000 C   0  0  0  0  0  0  0  0  0  0  0  0
   -0.2533    0.0000    0.0000 N   0  0  0  0  0  0  0  0  0  0  0  0
   -0.7382    0.0000    0.0000 C   0  0  0  0  0  0  0  0  0  0  0  0
   -0.2533    0.0000    0.0000 N   0  0  0  0  0  0  0  0  0  0  0  0
   -0.5082    0.0000    0.0000 C   0  0  0  0  0  0  0  0  0  0  0  0
   -0.0233    0.0000    0.0000 O   0  0  0  0  0  0  0  0  0  0  0  0
   -0.5082    0.0000    0.0000 C   0  0  0  0  0  0  0  0  0  0  0  0
   -0.2533    0.0000    0.0000 C   0  0  0  0  0  0  0  0  0  0  0  0
   -0.8053    0.0000    0.0000 O   0  0  0  0  0  0  0  0  0  0  0  0
   -0.5504    0.0000    0.0000 P   0  0  0  0  0  0  0  0  0  0  0  0
   -0.2954    0.0000    0.0000 O   0  0  0  0  0  0  0  0  0  0  0  0
   -1.3350    0.0000    0.0000 O   0  0  0  0  0  0  0  0  0  0  0  0
    0.2343    0.0000    0.0000 O   0  0  0  0  0  0  0  0  0  0  0  0
   -1.2928    0.0000    0.0000 C   0  0  0  0  0  0  0  0  0  0  0  0
   -1.9603    0.0000    0.0000 O   0  0  0  0  0  0  0  0  0  0  0  0
   -1.2928    0.0000    0.0000 C   0  0  0  0  0  0  0  0  0  0  0  0
   -1.9603    0.0000    0.0000 O   0  0  0  0  0  0  0  0  0  0  0  0
  1  2  1  0      
  2  3  2  0      
  3  4  1  0      
  4  5  2  0      
  5  6  1  0      
  6  7  2  0      
  2  7  1  0      
  7  8  1  0      
  8  9  2  0      
  9 10  1  0      
  6 10  1  0      
 10 11  1  0      
 11 12  1  0      
 12 13  1  0      
 13 14  1  0      
 14 15  1  0      
 15 16  1  0      
 16 17  1  0      
 16 18  1  0      
 16 19  2  0      
 13 20  1  0      
 20 21  1  0      
 20 22  1  0      
 11 22  1  0      
 22 23  1  0      
M  END
>  <Bioactivity>
Adenine nucleotide containing one phosphate group esterified to the sugar moiety in the 2'-, 3'-, or 5'-position.

>  <CAS>
61-19-8

>  <Col>
7

>  <Formula>
C10H14N5O7P

>  <ID>
T2133

>  <Index>
436

>  <MOLENAME>
Adenosine 5'-monophosphate

>  <MolWt>
347.22

>  <Pathways>
MAPK Signaling

>  <Plate>
PLATE 006

>  <QR code>
1151480281

>  <Receptor>
5'-AMP-activated protein kinase

>  <Reference>
1. Richter EA, et al. Ugeskr Laeger. 2006 Feb 27;168(9):896-900.

>  <Row>
D

>  <SMILES>
NC1=NC=NC2=C1N=CN2C1OC(COP(O)(O)=O)C(O)C1O

>  <Target>
MAPK activator

>  <Weight>
10mg

$$$$
Lab-1.sdf
  ChemDraw05232018482D

 10  9  0  0  0  0  0  0  0  0999 V2000
    0.7144    0.0000    0.0000 N   0  0  0  0  0  0  0  0  0  0  0  0
    0.7144    0.0000    0.0000 C   0  0  0  0  0  0  0  0  0  0  0  0
   -0.0001    0.0000    0.0000 C   0  0  0  0  0  0  0  0  0  0  0  0
   -0.7144    0.0000    0.0000 C   0  0  0  0  0  0  0  0  0  0  0  0
   -1.4289    0.0000    0.0000 C   0  0  0  0  0  0  0  0  0  0  0  0
   -2.1434    0.0000    0.0000 N   0  0  0  0  0  0  0  0  0  0  0  0
   -1.4289    0.0000    0.0000 O   0  0  0  0  0  0  0  0  0  0  0  0
    1.4289    0.0000    0.0000 C   0  0  0  0  0  0  0  0  0  0  0  0
    2.1434    0.0000    0.0000 O   0  0  0  0  0  0  0  0  0  0  0  0
    1.4289    0.0000    0.0000 O   0  0  0  0  0  0  0  0  0  0  0  0
  1  2  1  0      
  2  3  1  0      
  3  4  1  0      
  4  5  1  0      
  5  6  1  0      
  5  7  2  0      
  2  8  1  0      
  8  9  1  0      
  8 10  2  0      
M  END
>  <Bioactivity>
L-glutamine is a non-essential amino acid present abundantly throughout the body and is involved in many metabolic processes. It is synthesized from GLUTAMIC ACID and AMMONIA. It is the principal carr
ier of NITROGEN in the body and is an important energy source for many cells.

>  <CAS>
56-85-9

>  <Col>
8

>  <Formula>
C5H10N2O3

>  <ID>
T0326L

>  <Index>
437

>  <MOLENAME>
L-Glutamine

>  <MolWt>
146.14

>  <Pathways>
Amino Acids & Building Blocks

>  <Plate>
PLATE 006

>  <QR code>
1151480282

>  <Receptor>
CTP synthase 1

>  <Reference>
1. Mong JA, Blutstein T. Neuroscience. 2006; 138(3):967-75. 

>  <Row>
D

>  <SMILES>
NC(CCC(N)=O)C(O)=O

>  <Target>
CTP synthase antagonist

>  <Weight>
9.9mg

$$$$
Lab-1.sdf
  ChemDraw05232018482D

 16 18  0  0  0  0  0  0  0  0999 V2000
   -0.0797    0.0000    0.0000 C   0  0  0  0  0  0  0  0  0  0  0  0
    0.6347    0.0000    0.0000 N   0  0  0  0  0  0  0  0  0  0  0  0
    0.6347    0.0000    0.0000 C   0  0  0  0  0  0  0  0  0  0  0  0
    1.3492    0.0000    0.0000 N   0  0  0  0  0  0  0  0  0  0  0  0
    1.3492    0.0000    0.0000 C   0  0  0  0  0  0  0  0  0  0  0  0
    0.6347    0.0000    0.0000 N   0  0  0  0  0  0  0  0  0  0  0  0
   -0.0797    0.0000    0.0000 C   0  0  0  0  0  0  0  0  0  0  0  0
   -0.0797    0.0000    0.0000 C   0  0  0  0  0  0  0  0  0  0  0  0
   -0.8644    0.0000    0.0000 N   0  0  0  0  0  0  0  0  0  0  0  0
   -1.3492    0.0000    0.0000 C   0  0  0  0  0  0  0  0  0  0  0  0
   -0.8644    0.0000    0.0000 N   0  0  0  0  0  0  0  0  0  0  0  0
   -0.0797    0.0000    0.0000 C   0  0  0  0  0  0  0  0  0  0  0  0
   -0.7471    0.0000    0.0000 C   0  0  0  0  0  0  0  0  0  0  0  0
   -0.4922    0.0000    0.0000 C   0  0  0  0  0  0  0  0  0  0  0  0
    0.3328    0.0000    0.0000 C   0  0  0  0  0  0  0  0  0  0  0  0
    0.5877    0.0000    0.0000 O   0  0  0  0  0  0  0  0  0  0  0  0
  1  2  1  0      
  2  3  1  0      
  3  4  2  0      
  4  5  1  0      
  5  6  2  0      
  6  7  1  0      
  7  8  2  0      
  3  8  1  0      
  8  9  1  0      
  9 10  1  0      
 10 11  2  0      
  7 11  1  0      
  1 12  1  0      
 12 13  2  0      
 13 14  1  0      
 14 15  2  0      
 15 16  1  0      
 12 16  1  0      
M  END
>  <Bioactivity>
Kinetin is a type of cytokinin, a class of plant hormone that promotes cell division.

>  <CAS>
525-79-1

>  <Col>
9

>  <Formula>
C10H9N5O

>  <ID>
T2223

>  <Index>
438

>  <MOLENAME>
Kinetin

>  <MolWt>
215.21

>  <Pathways>
Others

>  <Plate>
PLATE 006

>  <QR code>
1151480283

>  <Receptor>
Others

>  <Reference>
1. Chiu PC, et al. J Cosmet Dermatol, 2007, 6(4), 243-249.

>  <Row>
D

>  <SMILES>
C(NC1=NC=NC2=C1NC=N2)C1=CC=CO1

>  <Target>
Others

>  <Weight>
10.1mg

$$$$
Lab-1.sdf
  ChemDraw05232018482D

 20 22  0  0  0  0  0  0  0  0999 V2000
   -3.2151    0.0000    0.0000 O   0  0  0  0  0  0  0  0  0  0  0  0
   -2.5006    0.0000    0.0000 C   0  0  0  0  0  0  0  0  0  0  0  0
   -2.5006    0.0000    0.0000 C   0  0  0  0  0  0  0  0  0  0  0  0
   -1.7862    0.0000    0.0000 C   0  0  0  0  0  0  0  0  0  0  0  0
   -1.0717    0.0000    0.0000 C   0  0  0  0  0  0  0  0  0  0  0  0
   -1.0717    0.0000    0.0000 C   0  0  0  0  0  0  0  0  0  0  0  0
   -1.7862    0.0000    0.0000 C   0  0  0  0  0  0  0  0  0  0  0  0
   -0.3572    0.0000    0.0000 C   0  0  0  0  0  0  0  0  0  0  0  0
   -0.3572    0.0000    0.0000 C   0  0  0  0  0  0  0  0  0  0  0  0
    0.3572    0.0000    0.0000 O   0  0  0  0  0  0  0  0  0  0  0  0
    1.0717    0.0000    0.0000 C   0  0  0  0  0  0  0  0  0  0  0  0
    1.7862    0.0000    0.0000 C   0  0  0  0  0  0  0  0  0  0  0  0
    2.5007    0.0000    0.0000 C   0  0  0  0  0  0  0  0  0  0  0  0
    3.2151    0.0000    0.0000 O   0  0  0  0  0  0  0  0  0  0  0  0
    2.5007    0.0000    0.0000 C   0  0  0  0  0  0  0  0  0  0  0  0
    1.7862    0.0000    0.0000 C   0  0  0  0  0  0  0  0  0  0  0  0
    1.7862    0.0000    0.0000 O   0  0  0  0  0  0  0  0  0  0  0  0
    1.0717    0.0000    0.0000 C   0  0  0  0  0  0  0  0  0  0  0  0
    0.3572    0.0000    0.0000 C   0  0  0  0  0  0  0  0  0  0  0  0
    0.3572    0.0000    0.0000 O   0  0  0  0  0  0  0  0  0  0  0  0
  1  2  1  0      
  2  3  2  0      
  3  4  1  0      
  4  5  2  0      
  5  6  1  0      
  6  7  2  0      
  2  7  1  0      
  5  8  1  0      
  8  9  2  0      
  9 10  1  0      
 10 11  1  0      
 11 12  2  0      
 12 13  1  0      
 13 14  1  0      
 13 15  2  0      
 15 16  1  0      
 16 17  1  0      
 16 18  2  0      
 11 18  1  0      
 18 19  1  0      
  8 19  1  0      
 19 20  2  0      
M  END
>  <Bioactivity>
Genistein(NPI 031L), a phytoestrogen found in soy products, is a highly specific inhibitor of protein tyrosine kinase (PTK) which blocks the mitogenic effect mediated by EGF on NIH-3T3 cells with IC50
 of 12¦ÌM or by insulin with IC50 of 19 ¦ÌM.

>  <CAS>
446-72-0

>  <Col>
10

>  <Formula>
C15H10O5

>  <ID>
T1737

>  <Index>
439

>  <MOLENAME>
Genistein

>  <MolWt>
270.24

>  <Pathways>
DNA Damage/DNA Repair

>  <Plate>
PLATE 006

>  <QR code>
1151480284

>  <Receptor>
Topoisomerase II; EGFR

>  <Reference>
1. Akiyama T, et al. J Biol Chem, 1987, 262(12), 5592-5595.

>  <Row>
D

>  <SMILES>
OC1=CC=C(C=C1)C1=COC2=CC(O)=CC(O)=C2C1=O

>  <Target>
Topoisomerase inhibitor; PTK inhibitor

>  <Weight>
10.2mg

$$$$
Lab-1.sdf
  ChemDraw05232018482D

 20 22  0  0  0  0  0  0  0  0999 V2000
   -3.2151    0.0000    0.0000 O   0  0  0  0  0  0  0  0  0  0  0  0
   -2.5006    0.0000    0.0000 C   0  0  0  0  0  0  0  0  0  0  0  0
   -2.5006    0.0000    0.0000 C   0  0  0  0  0  0  0  0  0  0  0  0
   -1.7862    0.0000    0.0000 C   0  0  0  0  0  0  0  0  0  0  0  0
   -1.0717    0.0000    0.0000 C   0  0  0  0  0  0  0  0  0  0  0  0
   -1.0717    0.0000    0.0000 C   0  0  0  0  0  0  0  0  0  0  0  0
   -1.7862    0.0000    0.0000 C   0  0  0  0  0  0  0  0  0  0  0  0
   -0.3572    0.0000    0.0000 C   0  0  0  0  0  0  0  0  0  0  0  0
   -0.3572    0.0000    0.0000 C   0  0  0  0  0  0  0  0  0  0  0  0
    0.3572    0.0000    0.0000 C   0  0  0  0  0  0  0  0  0  0  0  0
    0.3572    0.0000    0.0000 O   0  0  0  0  0  0  0  0  0  0  0  0
    1.0717    0.0000    0.0000 C   0  0  0  0  0  0  0  0  0  0  0  0
    1.7862    0.0000    0.0000 C   0  0  0  0  0  0  0  0  0  0  0  0
    1.7862    0.0000    0.0000 O   0  0  0  0  0  0  0  0  0  0  0  0
    2.5007    0.0000    0.0000 C   0  0  0  0  0  0  0  0  0  0  0  0
    2.5007    0.0000    0.0000 C   0  0  0  0  0  0  0  0  0  0  0  0
    3.2151    0.0000    0.0000 O   0  0  0  0  0  0  0  0  0  0  0  0
    1.7862    0.0000    0.0000 C   0  0  0  0  0  0  0  0  0  0  0  0
    1.0717    0.0000    0.0000 C   0  0  0  0  0  0  0  0  0  0  0  0
    0.3572    0.0000    0.0000 O   0  0  0  0  0  0  0  0  0  0  0  0
  1  2  1  0      
  2  3  2  0      
  3  4  1  0      
  4  5  2  0      
  5  6  1  0      
  6  7  2  0      
  2  7  1  0      
  5  8  1  0      
  8  9  2  0      
  9 10  1  0      
 10 11  2  0      
 10 12  1  0      
 12 13  2  0      
 13 14  1  0      
 13 15  1  0      
 15 16  2  0      
 16 17  1  0      
 16 18  1  0      
 18 19  2  0      
 12 19  1  0      
 19 20  1  0      
  8 20  1  0      
M  END
>  <Bioactivity>
Apigenin is a potent P450 inhibitor for CYP2C9 with Ki of 2 ¦ÌM.

>  <CAS>
520-36-5

>  <Col>
11

>  <Formula>
C15H10O5

>  <ID>
T2175

>  <Index>
440

>  <MOLENAME>
Apigenin

>  <MolWt>
270.24

>  <Pathways>
Metabolism

>  <Plate>
PLATE 006

>  <QR code>
1151480285

>  <Receptor>
CYP2C9

>  <Reference>
1. Lin JK, et al. J Cell Biochem Suppl, 1997, 28-29, 39-48.

>  <Row>
D

>  <SMILES>
OC1=CC=C(C=C1)C1=CC(=O)C2=C(O)C=C(O)C=C2O1

>  <Target>
CYP inhibitor

>  <Weight>
10.3mg

$$$$
Lab-1.sdf
  ChemDraw05232018482D

 30 33  0  0  0  0  0  0  0  0999 V2000
   -2.1434    0.0000    0.0000 O   0  0  0  0  0  0  0  0  0  0  0  0
   -2.1434    0.0000    0.0000 C   0  0  0  0  0  0  0  0  0  0  0  0
   -1.4290    0.0000    0.0000 C   0  0  0  0  0  0  0  0  0  0  0  0
   -1.4290    0.0000    0.0000 O   0  0  0  0  0  0  0  0  0  0  0  0
   -0.7145    0.0000    0.0000 C   0  0  0  0  0  0  0  0  0  0  0  0
   -0.0000    0.0000    0.0000 C   0  0  0  0  0  0  0  0  0  0  0  0
    0.7145    0.0000    0.0000 O   0  0  0  0  0  0  0  0  0  0  0  0
   -0.0000    0.0000    0.0000 C   0  0  0  0  0  0  0  0  0  0  0  0
    0.7145    0.0000    0.0000 O   0  0  0  0  0  0  0  0  0  0  0  0
   -0.7145    0.0000    0.0000 C   0  0  0  0  0  0  0  0  0  0  0  0
   -0.7145    0.0000    0.0000 O   0  0  0  0  0  0  0  0  0  0  0  0
   -0.7145    0.0000    0.0000 C   0  0  0  0  0  0  0  0  0  0  0  0
   -0.0000    0.0000    0.0000 C   0  0  0  0  0  0  0  0  0  0  0  0
    0.7145    0.0000    0.0000 C   0  0  0  0  0  0  0  0  0  0  0  0
    1.4289    0.0000    0.0000 C   0  0  0  0  0  0  0  0  0  0  0  0
    2.1434    0.0000    0.0000 C   0  0  0  0  0  0  0  0  0  0  0  0
    2.8579    0.0000    0.0000 O   0  0  0  0  0  0  0  0  0  0  0  0
    1.4289    0.0000    0.0000 C   0  0  0  0  0  0  0  0  0  0  0  0
    0.7145    0.0000    0.0000 C   0  0  0  0  0  0  0  0  0  0  0  0
    0.7145    0.0000    0.0000 O   0  0  0  0  0  0  0  0  0  0  0  0
   -0.0000    0.0000    0.0000 C   0  0  0  0  0  0  0  0  0  0  0  0
   -0.7145    0.0000    0.0000 C   0  0  0  0  0  0  0  0  0  0  0  0
   -0.7145    0.0000    0.0000 O   0  0  0  0  0  0  0  0  0  0  0  0
   -1.4290    0.0000    0.0000 C   0  0  0  0  0  0  0  0  0  0  0  0
   -1.4290    0.0000    0.0000 C   0  0  0  0  0  0  0  0  0  0  0  0
   -2.1434    0.0000    0.0000 C   0  0  0  0  0  0  0  0  0  0  0  0
   -2.8579    0.0000    0.0000 C   0  0  0  0  0  0  0  0  0  0  0  0
   -2.8579    0.0000    0.0000 C   0  0  0  0  0  0  0  0  0  0  0  0
   -2.1434    0.0000    0.0000 C   0  0  0  0  0  0  0  0  0  0  0  0
   -2.1434    0.0000    0.0000 O   0  0  0  0  0  0  0  0  0  0  0  0
  1  2  1  0      
  2  3  1  0      
  3  4  1  0      
  4  5  1  0      
  5  6  1  0      
  6  7  1  0      
  6  8  1  0      
  8  9  1  0      
  8 10  1  0      
  3 10  1  0      
 10 11  1  0      
  5 12  1  0      
 12 13  1  0      
 13 14  2  0      
 14 15  1  0      
 15 16  1  0      
 16 17  1  0      
 15 18  2  0      
 18 19  1  0      
 19 20  1  0      
 19 21  2  0      
 13 21  1  0      
 21 22  1  0      
 22 23  2  0      
 22 24  1  0      
 24 25  2  0      
 12 25  1  0      
 25 26  1  0      
 26 27  2  0      
 27 28  1  0      
 28 29  2  0      
 24 29  1  0      
 29 30  1  0      
M  END
>  <Bioactivity>
Aloin, a natural anthracycline from Aloe vera, is a tyrosinase inhibitor

>  <CAS>
1415-73-2

>  <Col>
2

>  <Formula>
C21H22O9

>  <ID>
T0176

>  <Index>
441

>  <MOLENAME>
Aloin

>  <MolWt>
418.39

>  <Pathways>
Others

>  <Plate>
PLATE 006

>  <QR code>
1151480273

>  <Receptor>
Others

>  <Reference>
1. Tan C, et al. Chin Med J (Engl), 2002, 115(12), 1859-1862.

>  <Row>
E

>  <SMILES>
OCC1OC(C(O)C(O)C1O)C1C2=CC(CO)=CC(O)=C2C(=O)C2=C1C=CC=C2O

>  <Target>
tyrosinase inhibitor

>  <Weight>
10.2mg

$$$$
Lab-1.sdf
  ChemDraw05232018482D

 20 22  0  0  0  0  0  0  0  0999 V2000
   -2.5006    0.0000    0.0000 O   0  0  0  0  0  0  0  0  0  0  0  0
   -2.5006    0.0000    0.0000 C   0  0  0  0  0  0  0  0  0  0  0  0
   -1.7861    0.0000    0.0000 C   0  0  0  0  0  0  0  0  0  0  0  0
   -1.7861    0.0000    0.0000 C   0  0  0  0  0  0  0  0  0  0  0  0
   -1.0718    0.0000    0.0000 C   0  0  0  0  0  0  0  0  0  0  0  0
   -1.0718    0.0000    0.0000 O   0  0  0  0  0  0  0  0  0  0  0  0
   -0.3573    0.0000    0.0000 C   0  0  0  0  0  0  0  0  0  0  0  0
    0.3572    0.0000    0.0000 C   0  0  0  0  0  0  0  0  0  0  0  0
    0.3572    0.0000    0.0000 O   0  0  0  0  0  0  0  0  0  0  0  0
    1.0716    0.0000    0.0000 C   0  0  0  0  0  0  0  0  0  0  0  0
    1.0716    0.0000    0.0000 C   0  0  0  0  0  0  0  0  0  0  0  0
    1.7861    0.0000    0.0000 C   0  0  0  0  0  0  0  0  0  0  0  0
    2.5006    0.0000    0.0000 C   0  0  0  0  0  0  0  0  0  0  0  0
    2.5006    0.0000    0.0000 C   0  0  0  0  0  0  0  0  0  0  0  0
    1.7861    0.0000    0.0000 C   0  0  0  0  0  0  0  0  0  0  0  0
    1.7861    0.0000    0.0000 O   0  0  0  0  0  0  0  0  0  0  0  0
    0.3572    0.0000    0.0000 C   0  0  0  0  0  0  0  0  0  0  0  0
    0.3572    0.0000    0.0000 O   0  0  0  0  0  0  0  0  0  0  0  0
   -0.3573    0.0000    0.0000 C   0  0  0  0  0  0  0  0  0  0  0  0
   -1.0718    0.0000    0.0000 C   0  0  0  0  0  0  0  0  0  0  0  0
  1  2  1  0      
  2  3  1  0      
  3  4  2  0      
  4  5  1  0      
  5  6  1  0      
  5  7  2  0      
  7  8  1  0      
  8  9  2  0      
  8 10  1  0      
 10 11  2  0      
 11 12  1  0      
 12 13  2  0      
 13 14  1  0      
 14 15  2  0      
 10 15  1  0      
 15 16  1  0      
 11 17  1  0      
 17 18  2  0      
 17 19  1  0      
  7 19  1  0      
 19 20  2  0      
  3 20  1  0      
M  END
>  <Bioactivity>
Aloe-emodin is an interferon-inducing agent with IC50 of about 1 ¦Ìg/mL for JEV and of about 0.33 ¦Ìg/mL for EV71.

>  <CAS>
481-72-1

>  <Col>
3

>  <Formula>
C15H10O5

>  <ID>
T2843

>  <Index>
442

>  <MOLENAME>
Aloe-emodin

>  <MolWt>
270.24

>  <Pathways>
Microbiology & Virology

>  <Plate>
PLATE 006

>  <QR code>
1151480272

>  <Receptor>
HSV1/HSV2

>  <Reference>
1. Li SW, et al. Eur J Pharmacol. 2014 Sep 5;738:125-32.

>  <Row>
E

>  <SMILES>
OCC1=CC(O)=C2C(=O)C3=C(C=CC=C3O)C(=O)C2=C1

>  <Target>
Antiviral

>  <Weight>
10.1mg

$$$$
Lab-1.sdf
  ChemDraw05232018482D

 32 34  0  0  0  0  0  0  0  0999 V2000
   -2.1434    0.0000    0.0000 O   0  0  0  0  0  0  0  0  0  0  0  0
   -1.4289    0.0000    0.0000 C   0  0  0  0  0  0  0  0  0  0  0  0
   -1.4289    0.0000    0.0000 C   0  0  0  0  0  0  0  0  0  0  0  0
   -0.7145    0.0000    0.0000 O   0  0  0  0  0  0  0  0  0  0  0  0
   -0.7145    0.0000    0.0000 C   0  0  0  0  0  0  0  0  0  0  0  0
   -0.0000    0.0000    0.0000 O   0  0  0  0  0  0  0  0  0  0  0  0
   -0.0000    0.0000    0.0000 C   0  0  0  0  0  0  0  0  0  0  0  0
    0.7145    0.0000    0.0000 C   0  0  0  0  0  0  0  0  0  0  0  0
    0.7145    0.0000    0.0000 O   0  0  0  0  0  0  0  0  0  0  0  0
    1.4289    0.0000    0.0000 C   0  0  0  0  0  0  0  0  0  0  0  0
    1.4289    0.0000    0.0000 O   0  0  0  0  0  0  0  0  0  0  0  0
    0.7145    0.0000    0.0000 C   0  0  0  0  0  0  0  0  0  0  0  0
    0.7145    0.0000    0.0000 C   0  0  0  0  0  0  0  0  0  0  0  0
    0.7145    0.0000    0.0000 N   0  0  0  0  0  0  0  0  0  0  0  0
   -0.0000    0.0000    0.0000 C   0  0  0  0  0  0  0  0  0  0  0  0
   -0.7145    0.0000    0.0000 C   0  0  0  0  0  0  0  0  0  0  0  0
   -1.4289    0.0000    0.0000 C   0  0  0  0  0  0  0  0  0  0  0  0
   -1.4289    0.0000    0.0000 C   0  0  0  0  0  0  0  0  0  0  0  0
   -0.7145    0.0000    0.0000 C   0  0  0  0  0  0  0  0  0  0  0  0
   -0.0000    0.0000    0.0000 C   0  0  0  0  0  0  0  0  0  0  0  0
    2.1434    0.0000    0.0000 C   0  0  0  0  0  0  0  0  0  0  0  0
    2.8579    0.0000    0.0000 O   0  0  0  0  0  0  0  0  0  0  0  0
    2.1434    0.0000    0.0000 C   0  0  0  0  0  0  0  0  0  0  0  0
    2.8579    0.0000    0.0000 O   0  0  0  0  0  0  0  0  0  0  0  0
    1.4289    0.0000    0.0000 C   0  0  0  0  0  0  0  0  0  0  0  0
    1.4289    0.0000    0.0000 O   0  0  0  0  0  0  0  0  0  0  0  0
   -1.4289    0.0000    0.0000 C   0  0  0  0  0  0  0  0  0  0  0  0
   -1.4289    0.0000    0.0000 O   0  0  0  0  0  0  0  0  0  0  0  0
   -2.1434    0.0000    0.0000 C   0  0  0  0  0  0  0  0  0  0  0  0
   -2.8579    0.0000    0.0000 O   0  0  0  0  0  0  0  0  0  0  0  0
   -2.1434    0.0000    0.0000 C   0  0  0  0  0  0  0  0  0  0  0  0
   -2.8579    0.0000    0.0000 O   0  0  0  0  0  0  0  0  0  0  0  0
  1  2  1  0      
  2  3  1  0      
  3  4  1  0      
  4  5  1  0      
  5  6  1  0      
  6  7  1  0      
  7  8  1  0      
  8  9  1  0      
  9 10  1  0      
 10 11  1  0      
 11 12  1  0      
 12 13  1  0      
 13 14  3  0      
 12 15  1  0      
 15 16  2  0      
 16 17  1  0      
 17 18  2  0      
 18 19  1  0      
 19 20  2  0      
 15 20  1  0      
 10 21  1  0      
 21 22  1  0      
 21 23  1  0      
 23 24  1  0      
 23 25  1  0      
  8 25  1  0      
 25 26  1  0      
  5 27  1  0      
 27 28  1  0      
 27 29  1  0      
 29 30  1  0      
 29 31  1  0      
  3 31  1  0      
 31 32  1  0      
M  END
>  <Bioactivity>
Laetrile is a glycoside initially isolated from the seeds of the tree Prunus dulcis, also known as bitter almonds.

>  <CAS>
29883-15-6

>  <Col>
4

>  <Formula>
C20H27NO11

>  <ID>
T2795

>  <Index>
443

>  <MOLENAME>
Laetrile

>  <MolWt>
457.43

>  <Pathways>
Others

>  <Plate>
PLATE 006

>  <QR code>
1151480271

>  <Receptor>
Others

>  <Reference>
1. Milazzo S, Horneber M. Cochrane Database Syst Rev. 2015 Apr 28;4:CD005476.

>  <Row>
E

>  <SMILES>
OCC1OC(OCC2OC(OC(C#N)C3=CC=CC=C3)C(O)C(O)C2O)C(O)C(O)C1O

>  <Target>
Others

>  <Weight>
10.2mg

$$$$
Lab-1.sdf
  ChemDraw05232018482D

 57 60  0  0  0  0  0  0  0  0999 V2000
    5.7283    0.0000    0.0000 C   0  0  0  0  0  0  0  0  0  0  0  0
    5.0171    0.0000    0.0000 O   0  0  0  0  0  0  0  0  0  0  0  0
    4.2994    0.0000    0.0000 C   0  0  0  0  0  0  0  0  0  0  0  0
    3.5882    0.0000    0.0000 C   0  0  0  0  0  0  0  0  0  0  0  0
    2.8705    0.0000    0.0000 C   0  0  0  0  0  0  0  0  0  0  0  0
    2.8642    0.0000    0.0000 C   0  0  0  0  0  0  0  0  0  0  0  0
    3.5755    0.0000    0.0000 C   0  0  0  0  0  0  0  0  0  0  0  0
    4.2931    0.0000    0.0000 C   0  0  0  0  0  0  0  0  0  0  0  0
    5.0044    0.0000    0.0000 O   0  0  0  0  0  0  0  0  0  0  0  0
    2.1593    0.0000    0.0000 C   0  0  0  0  0  0  0  0  0  0  0  0
    1.4416    0.0000    0.0000 C   0  0  0  0  0  0  0  0  0  0  0  0
    1.4353    0.0000    0.0000 C   0  0  0  0  0  0  0  0  0  0  0  0
    0.7304    0.0000    0.0000 C   0  0  0  0  0  0  0  0  0  0  0  0
    0.7569    0.0000    0.0000 O   0  0  0  0  0  0  0  0  0  0  0  0
    1.3003    0.0000    0.0000 C   0  0  0  0  0  0  0  0  0  0  0  0
    2.1219    0.0000    0.0000 O   0  0  0  0  0  0  0  0  0  0  0  0
    0.8778    0.0000    0.0000 C   0  0  0  0  0  0  0  0  0  0  0  0
    1.1217    0.0000    0.0000 C   0  0  0  0  0  0  0  0  0  0  0  0
    0.5611    0.0000    0.0000 C   0  0  0  0  0  0  0  0  0  0  0  0
   -0.2435    0.0000    0.0000 C   0  0  0  0  0  0  0  0  0  0  0  0
   -0.4874    0.0000    0.0000 C   0  0  0  0  0  0  0  0  0  0  0  0
    0.0733    0.0000    0.0000 N   0  0  0  0  0  0  0  0  0  0  0  0
   -0.7333    0.0000    0.0000 C   0  0  0  0  0  0  0  0  0  0  0  0
   -0.7628    0.0000    0.0000 O   0  0  0  0  0  0  0  0  0  0  0  0
   -1.4419    0.0000    0.0000 C   0  0  0  0  0  0  0  0  0  0  0  0
   -1.4303    0.0000    0.0000 O   0  0  0  0  0  0  0  0  0  0  0  0
   -2.1621    0.0000    0.0000 C   0  0  0  0  0  0  0  0  0  0  0  0
   -1.4535    0.0000    0.0000 O   0  0  0  0  0  0  0  0  0  0  0  0
   -2.8707    0.0000    0.0000 O   0  0  0  0  0  0  0  0  0  0  0  0
   -3.5909    0.0000    0.0000 C   0  0  0  0  0  0  0  0  0  0  0  0
   -3.6025    0.0000    0.0000 C   0  0  0  0  0  0  0  0  0  0  0  0
   -2.8939    0.0000    0.0000 C   0  0  0  0  0  0  0  0  0  0  0  0
   -2.1737    0.0000    0.0000 C   0  0  0  0  0  0  0  0  0  0  0  0
   -1.4651    0.0000    0.0000 C   0  0  0  0  0  0  0  0  0  0  0  0
   -4.3227    0.0000    0.0000 O   0  0  0  0  0  0  0  0  0  0  0  0
   -4.3342    0.0000    0.0000 C   0  0  0  0  0  0  0  0  0  0  0  0
   -4.2995    0.0000    0.0000 C   0  0  0  0  0  0  0  0  0  0  0  0
   -4.2879    0.0000    0.0000 C   0  0  0  0  0  0  0  0  0  0  0  0
   -4.9965    0.0000    0.0000 C   0  0  0  0  0  0  0  0  0  0  0  0
   -5.7167    0.0000    0.0000 C   0  0  0  0  0  0  0  0  0  0  0  0
   -4.9849    0.0000    0.0000 C   0  0  0  0  0  0  0  0  0  0  0  0
   -4.2648    0.0000    0.0000 C   0  0  0  0  0  0  0  0  0  0  0  0
   -4.2532    0.0000    0.0000 C   0  0  0  0  0  0  0  0  0  0  0  0
   -3.5561    0.0000    0.0000 C   0  0  0  0  0  0  0  0  0  0  0  0
   -2.8360    0.0000    0.0000 C   0  0  0  0  0  0  0  0  0  0  0  0
   -2.8244    0.0000    0.0000 C   0  0  0  0  0  0  0  0  0  0  0  0
   -3.5330    0.0000    0.0000 C   0  0  0  0  0  0  0  0  0  0  0  0
   -3.5214    0.0000    0.0000 C   0  0  0  0  0  0  0  0  0  0  0  0
   -2.1273    0.0000    0.0000 C   0  0  0  0  0  0  0  0  0  0  0  0
   -2.1389    0.0000    0.0000 O   0  0  0  0  0  0  0  0  0  0  0  0
   -1.4072    0.0000    0.0000 C   0  0  0  0  0  0  0  0  0  0  0  0
   -0.6985    0.0000    0.0000 C   0  0  0  0  0  0  0  0  0  0  0  0
   -0.7101    0.0000    0.0000 O   0  0  0  0  0  0  0  0  0  0  0  0
    0.0216    0.0000    0.0000 C   0  0  0  0  0  0  0  0  0  0  0  0
    0.0333    0.0000    0.0000 C   0  0  0  0  0  0  0  0  0  0  0  0
   -5.0197    0.0000    0.0000 O   0  0  0  0  0  0  0  0  0  0  0  0
   -5.7283    0.0000    0.0000 C   0  0  0  0  0  0  0  0  0  0  0  0
  1  2  1  0      
  2  3  1  0      
  3  4  1  0      
  4  5  1  0      
  5  6  1  0      
  6  7  1  0      
  7  8  1  0      
  3  8  1  0      
  8  9  1  0      
 10  5  1  4      
 10 11  2  0      
 11 12  1  0      
 11 13  1  0      
 13 14  1  0      
 14 15  1  0      
 15 16  2  0      
 15 17  1  0      
 17 18  1  0      
 18 19  1  0      
 19 20  1  0      
 20 21  1  0      
 21 22  1  0      
 17 22  1  0      
 22 23  1  0      
 23 24  2  0      
 23 25  1  0      
 25 26  2  0      
 25 27  1  0      
 27 28  1  0      
 27 29  1  0      
 29 30  1  0      
 30 31  1  0      
 31 32  1  0      
 32 33  1  0      
 27 33  1  0      
 33 34  1  0      
 31 35  1  0      
 35 36  1  0      
 30 37  1  0      
 37 38  1  0      
 38 39  1  0      
 39 40  1  0      
 39 41  1  0      
 41 42  1  0      
 42 43  1  0      
 42 44  2  0      
 44 45  1  4      
 45 46  1  0      
 46 47  1  0      
 47 48  2  0      
 45 49  1  0      
 49 50  2  0      
 49 51  1  0      
 51 52  1  0      
 52 53  1  0      
 52 54  1  0      
 13 54  1  0      
 54 55  1  0      
 37 56  1  0      
 56 57  1  0      
M  END
>  <Bioactivity>
Tacrolimus is a macrolide isolated from the culture broth of a strain of Streptomyces tsukubaensis that has strong immunosuppressive activity in vivo and prevents the activation of T-lymphocytes in re
sponse to antigenic or mitogenic stimulation in vitro.

>  <CAS>
104987-11-3

>  <Col>
5

>  <Formula>
C44H69NO12

>  <ID>
T2144

>  <Index>
444

>  <MOLENAME>
Tacrolimus (FK506)

>  <MolWt>
804.02

>  <Pathways>
PI3K/Akt/mTOR Signaling

>  <Plate>
PLATE 006

>  <QR code>
1151480270

>  <Receptor>
FKBP1A

>  <Reference>
1. Flanagan WM, et al. Nature, 1991, 352(6338), 803-807.

>  <Row>
E

>  <SMILES>
COC1CC(CCC1O)C=C(C)C1OC(=O)C2CCCCN2C(=O)C(=O)C2(O)OC(C(CC2C)OC)C(CC(C)CC(C)=CC(CC=C)C(=O)CC(O)C1C)OC

>  <Target>
mTOR inhibitor

>  <Weight>
10.1mg

$$$$
Lab-1.sdf
  ChemDraw05232018482D

 11 12  0  0  0  0  0  0  0  0999 V2000
   -1.6377    0.0000    0.0000 O   0  0  0  0  0  0  0  0  0  0  0  0
   -0.8307    0.0000    0.0000 C   0  0  0  0  0  0  0  0  0  0  0  0
   -0.5758    0.0000    0.0000 C   0  0  0  0  0  0  0  0  0  0  0  0
   -1.0607    0.0000    0.0000 C   0  0  0  0  0  0  0  0  0  0  0  0
   -0.5758    0.0000    0.0000 N   0  0  0  0  0  0  0  0  0  0  0  0
    0.2087    0.0000    0.0000 C   0  0  0  0  0  0  0  0  0  0  0  0
    0.9232    0.0000    0.0000 C   0  0  0  0  0  0  0  0  0  0  0  0
    1.6377    0.0000    0.0000 C   0  0  0  0  0  0  0  0  0  0  0  0
    1.6377    0.0000    0.0000 C   0  0  0  0  0  0  0  0  0  0  0  0
    0.9232    0.0000    0.0000 C   0  0  0  0  0  0  0  0  0  0  0  0
    0.2087    0.0000    0.0000 C   0  0  0  0  0  0  0  0  0  0  0  0
  1  2  1  0      
  2  3  1  0      
  3  4  2  0      
  4  5  1  0      
  5  6  1  0      
  6  7  2  0      
  7  8  1  0      
  8  9  2  0      
  9 10  1  0      
 10 11  2  0      
  3 11  1  0      
  6 11  1  0      
M  END
>  <Bioactivity>
Indole-3-Carbinol is a naturally occurring, orally available cleavage product of the glucosinolate glucobrassicanin, a natural compound present in a wide variety of plant food substances including mem
bers of the family Cruciferae with antioxidant and potential chemopreventive properties.

>  <CAS>
700-06-1

>  <Col>
6

>  <Formula>
C9H9NO

>  <ID>
T2947

>  <Index>
445

>  <MOLENAME>
Indole-3-carbinol

>  <MolWt>
147.17

>  <Pathways>
Immunology/Inflammation

>  <Plate>
PLATE 006

>  <QR code>
1151480269

>  <Receptor>
NF-¦ÊB; p53

>  <Reference>
1. Lin H, et al. Biochem Biophys Res Commun. 2015 May 1;460(2):422-7. 

>  <Row>
E

>  <SMILES>
OCC1=CNC2=CC=CC=C12

>  <Target>
NF-¦ÊB inhibitor; p53 activator

>  <Weight>
10.3mg

$$$$
Lab-1.sdf
  ChemDraw05232018482D

 19 21  0  0  0  0  0  0  0  0999 V2000
   -2.8578    0.0000    0.0000 O   0  0  0  0  0  0  0  0  0  0  0  0
   -2.1433    0.0000    0.0000 C   0  0  0  0  0  0  0  0  0  0  0  0
   -2.1433    0.0000    0.0000 C   0  0  0  0  0  0  0  0  0  0  0  0
   -1.4290    0.0000    0.0000 C   0  0  0  0  0  0  0  0  0  0  0  0
   -1.4290    0.0000    0.0000 O   0  0  0  0  0  0  0  0  0  0  0  0
   -0.7145    0.0000    0.0000 C   0  0  0  0  0  0  0  0  0  0  0  0
   -0.0000    0.0000    0.0000 C   0  0  0  0  0  0  0  0  0  0  0  0
   -0.0000    0.0000    0.0000 O   0  0  0  0  0  0  0  0  0  0  0  0
    0.7145    0.0000    0.0000 C   0  0  0  0  0  0  0  0  0  0  0  0
    0.7145    0.0000    0.0000 C   0  0  0  0  0  0  0  0  0  0  0  0
   -0.0000    0.0000    0.0000 O   0  0  0  0  0  0  0  0  0  0  0  0
   -0.7145    0.0000    0.0000 C   0  0  0  0  0  0  0  0  0  0  0  0
   -1.4290    0.0000    0.0000 C   0  0  0  0  0  0  0  0  0  0  0  0
    1.4289    0.0000    0.0000 C   0  0  0  0  0  0  0  0  0  0  0  0
    2.1433    0.0000    0.0000 C   0  0  0  0  0  0  0  0  0  0  0  0
    2.8578    0.0000    0.0000 C   0  0  0  0  0  0  0  0  0  0  0  0
    2.8578    0.0000    0.0000 C   0  0  0  0  0  0  0  0  0  0  0  0
    2.1433    0.0000    0.0000 C   0  0  0  0  0  0  0  0  0  0  0  0
    1.4289    0.0000    0.0000 C   0  0  0  0  0  0  0  0  0  0  0  0
  1  2  1  0      
  2  3  2  0      
  3  4  1  0      
  4  5  1  0      
  4  6  2  0      
  6  7  1  0      
  7  8  2  0      
  7  9  1  0      
  9 10  2  0      
 10 11  1  0      
 11 12  1  0      
  6 12  1  0      
 12 13  2  0      
  2 13  1  0      
 10 14  1  0      
 14 15  2  0      
 15 16  1  0      
 16 17  2  0      
 17 18  1  0      
 18 19  2  0      
 14 19  1  0      
M  END
>  <Bioactivity>
Chrysin is a naturally occurring flavone chemically extracted from the blue passion flower (Passiflora caerulea).

>  <CAS>
480-40-0

>  <Col>
7

>  <Formula>
C15H10O4

>  <ID>
T2837

>  <Index>
446

>  <MOLENAME>
Chrysin

>  <MolWt>
254.24

>  <Pathways>
Others

>  <Plate>
PLATE 006

>  <QR code>
1151480268

>  <Receptor>
Others

>  <Reference>
1. Rauf A, et al. Fitoterapia. 2015 Jun;103:129-35. 

>  <Row>
E

>  <SMILES>
OC1=CC(O)=C2C(=O)C=C(OC2=C1)C1=CC=CC=C1

>  <Target>
Others

>  <Weight>
10.2mg

$$$$
Lab-1.sdf
  ChemDraw05232018482D

 27 29  0  0  0  0  0  0  0  0999 V2000
   -4.0441    0.0000    0.0000 Br  0  5  0  0  0  0  0  0  0  0  0  0
   -0.3674    0.0000    0.0000 C   0  0  0  0  0  0  0  0  0  0  0  0
   -0.1815    0.0000    0.0000 C   0  0  0  0  0  0  0  0  0  0  0  0
   -0.7846    0.0000    0.0000 C   0  0  0  0  0  0  0  0  0  0  0  0
   -0.5694    0.0000    0.0000 C   0  0  0  0  0  0  0  0  0  0  0  0
   -1.1485    0.0000    0.0000 N   0  3  0  0  0  0  0  0  0  0  0  0
   -1.2555    0.0000    0.0000 C   0  0  0  0  0  0  0  0  0  0  0  0
   -0.9168    0.0000    0.0000 C   0  0  0  0  0  0  0  0  0  0  0  0
   -0.1124    0.0000    0.0000 C   0  0  0  0  0  0  0  0  0  0  0  0
    0.2455    0.0000    0.0000 C   0  0  0  0  0  0  0  0  0  0  0  0
   -0.1124    0.0000    0.0000 C   0  0  0  0  0  0  0  0  0  0  0  0
   -0.9168    0.0000    0.0000 C   0  0  0  0  0  0  0  0  0  0  0  0
   -1.5618    0.0000    0.0000 C   0  0  0  0  0  0  0  0  0  0  0  0
   -2.2762    0.0000    0.0000 O   0  0  0  0  0  0  0  0  0  0  0  0
   -1.5618    0.0000    0.0000 C   0  0  0  0  0  0  0  0  0  0  0  0
    1.1449    0.0000    0.0000 O   0  0  0  0  0  0  0  0  0  0  0  0
    1.7700    0.0000    0.0000 C   0  0  0  0  0  0  0  0  0  0  0  0
    1.2584    0.0000    0.0000 O   0  0  0  0  0  0  0  0  0  0  0  0
    2.6298    0.0000    0.0000 C   0  0  0  0  0  0  0  0  0  0  0  0
    3.2715    0.0000    0.0000 C   0  0  0  0  0  0  0  0  0  0  0  0
    4.0441    0.0000    0.0000 O   0  0  0  0  0  0  0  0  0  0  0  0
    2.7657    0.0000    0.0000 C   0  0  0  0  0  0  0  0  0  0  0  0
    3.5384    0.0000    0.0000 C   0  0  0  0  0  0  0  0  0  0  0  0
    3.6743    0.0000    0.0000 C   0  0  0  0  0  0  0  0  0  0  0  0
    3.0376    0.0000    0.0000 C   0  0  0  0  0  0  0  0  0  0  0  0
    2.2649    0.0000    0.0000 C   0  0  0  0  0  0  0  0  0  0  0  0
    2.1290    0.0000    0.0000 C   0  0  0  0  0  0  0  0  0  0  0  0
  2  3  1  0      
  3  4  1  0      
  4  5  1  0      
  5  6  1  0      
  6  7  1  0      
  6  8  1  0      
  8  9  1  0      
  9 10  1  0      
 10 11  1  0      
 11 12  1  0      
  6 12  1  0      
 12 13  1  0      
 13 14  1  0      
 14 15  1  0      
  8 15  1  0      
 13 15  1  0      
 10 16  1  0      
 16 17  1  0      
 17 18  2  0      
 17 19  1  0      
 19 20  1  0      
 20 21  1  0      
 19 22  1  0      
 22 23  2  0      
 23 24  1  0      
 24 25  2  0      
 25 26  1  0      
 26 27  2  0      
 22 27  1  0      
M  CHG  2   1  -1   6   1
M  END
>  <Bioactivity>
Scopolamine butylbromide is a competitive antagonist of  muscarinic acetylcholine receptor (mAChR) with an IC50 of 55.3 ¡À 4.3 nM.

>  <CAS>
149-64-4

>  <Col>
8

>  <Formula>
C21H30NO4?Br

>  <ID>
T2183

>  <Index>
447

>  <MOLENAME>
Scopolamine butylbromide

>  <MolWt>
440.37

>  <Pathways>
Neuroscience

>  <Plate>
PLATE 006

>  <QR code>
1151480267

>  <Receptor>
mAChR

>  <Reference>
1. Raufman JP, et al. Carcinogenesis. 2011 Sep;32(9):1396-402.

>  <Row>
E

>  <SMILES>
[Br-].CCCC[N+]1(C)C2CC(CC1C1OC21)OC(=O)C(CO)C1=CC=CC=C1

>  <Target>
AChR antagonist

>  <Weight>
10.1mg

$$$$
Lab-1.sdf
  ChemDraw05232018482D

 21 23  0  0  0  0  0  0  0  0999 V2000
   -3.9540    0.0000    0.0000 C   0  0  0  0  0  0  0  0  0  0  0  0
   -3.5415    0.0000    0.0000 O   0  0  0  0  0  0  0  0  0  0  0  0
   -2.7165    0.0000    0.0000 C   0  0  0  0  0  0  0  0  0  0  0  0
   -2.3040    0.0000    0.0000 O   0  0  0  0  0  0  0  0  0  0  0  0
   -2.3040    0.0000    0.0000 N   0  0  0  0  0  0  0  0  0  0  0  0
   -1.4790    0.0000    0.0000 C   0  0  0  0  0  0  0  0  0  0  0  0
   -0.9941    0.0000    0.0000 N   0  0  0  0  0  0  0  0  0  0  0  0
   -0.2095    0.0000    0.0000 C   0  0  0  0  0  0  0  0  0  0  0  0
   -0.2095    0.0000    0.0000 C   0  0  0  0  0  0  0  0  0  0  0  0
   -0.9941    0.0000    0.0000 N   0  0  0  0  0  0  0  0  0  0  0  0
    0.5049    0.0000    0.0000 C   0  0  0  0  0  0  0  0  0  0  0  0
    1.2194    0.0000    0.0000 C   0  0  0  0  0  0  0  0  0  0  0  0
    1.2194    0.0000    0.0000 C   0  0  0  0  0  0  0  0  0  0  0  0
    0.5049    0.0000    0.0000 C   0  0  0  0  0  0  0  0  0  0  0  0
    1.9338    0.0000    0.0000 C   0  0  0  0  0  0  0  0  0  0  0  0
    1.9338    0.0000    0.0000 O   0  0  0  0  0  0  0  0  0  0  0  0
    2.6483    0.0000    0.0000 C   0  0  0  0  0  0  0  0  0  0  0  0
    3.4020    0.0000    0.0000 C   0  0  0  0  0  0  0  0  0  0  0  0
    3.9540    0.0000    0.0000 C   0  0  0  0  0  0  0  0  0  0  0  0
    3.5415    0.0000    0.0000 C   0  0  0  0  0  0  0  0  0  0  0  0
    2.7345    0.0000    0.0000 S   0  0  0  0  0  0  0  0  0  0  0  0
  1  2  1  0      
  2  3  1  0      
  3  4  2  0      
  3  5  1  0      
  5  6  1  0      
  6  7  2  0      
  7  8  1  0      
  8  9  2  0      
  9 10  1  0      
  6 10  1  0      
  9 11  1  0      
 11 12  2  0      
 12 13  1  0      
 13 14  2  0      
  8 14  1  0      
 12 15  1  0      
 15 16  2  0      
 15 17  1  0      
 17 18  2  0      
 18 19  1  0      
 19 20  2  0      
 20 21  1  0      
 17 21  1  0      
M  END
>  <Bioactivity>
Nocodazole is a rapidly-reversible inhibitor of microtubule polymerization, also inhibits Abl, Abl(E255K) and Abl(T315I) with IC50 of 0.21 ¦ÌM, 0.53 ¦ÌM and 0.64 ¦ÌM in cell-free assays, respectively.

>  <CAS>
31430-18-9

>  <Col>
9

>  <Formula>
C14H11N3O3S

>  <ID>
T2802

>  <Index>
448

>  <MOLENAME>
Nocodazole

>  <MolWt>
301.32

>  <Pathways>
Cell Cycle/Checkpoint

>  <Plate>
PLATE 006

>  <QR code>
1151480266

>  <Receptor>
Microtubules; Abl

>  <Reference>
1. Park H, et al. ChemMedChem. 2012, 7(1), 53-56.

>  <Row>
E

>  <SMILES>
COC(=O)NC1=NC2=C(N1)C=C(C=C2)C(=O)C1=CC=CS1

>  <Target>
Microtubule Associated inhibitor

>  <Weight>
10mg

$$$$
Lab-1.sdf
  ChemDraw05232018482D

 21 24  0  0  0  0  0  0  0  0999 V2000
   -1.8814    0.0000    0.0000 C   0  0  0  0  0  0  0  0  0  0  0  0
   -1.5215    0.0000    0.0000 C   0  0  0  0  0  0  0  0  0  0  0  0
   -0.9897    0.0000    0.0000 C   0  0  0  0  0  0  0  0  0  0  0  0
   -0.1776    0.0000    0.0000 C   0  0  0  0  0  0  0  0  0  0  0  0
    0.1028    0.0000    0.0000 C   0  0  0  0  0  0  0  0  0  0  0  0
   -0.4291    0.0000    0.0000 C   0  0  0  0  0  0  0  0  0  0  0  0
   -0.1488    0.0000    0.0000 C   0  0  0  0  0  0  0  0  0  0  0  0
    0.6634    0.0000    0.0000 C   0  0  0  0  0  0  0  0  0  0  0  0
    1.1952    0.0000    0.0000 C   0  0  0  0  0  0  0  0  0  0  0  0
    0.9149    0.0000    0.0000 C   0  0  0  0  0  0  0  0  0  0  0  0
    1.4468    0.0000    0.0000 C   0  0  0  0  0  0  0  0  0  0  0  0
    2.2589    0.0000    0.0000 C   0  0  0  0  0  0  0  0  0  0  0  0
    2.5392    0.0000    0.0000 C   0  0  0  0  0  0  0  0  0  0  0  0
    3.3513    0.0000    0.0000 O   0  0  0  0  0  0  0  0  0  0  0  0
    2.0074    0.0000    0.0000 C   0  0  0  0  0  0  0  0  0  0  0  0
   -1.2412    0.0000    0.0000 C   0  0  0  0  0  0  0  0  0  0  0  0
   -1.8926    0.0000    0.0000 C   0  0  0  0  0  0  0  0  0  0  0  0
   -2.5754    0.0000    0.0000 C   0  0  0  0  0  0  0  0  0  0  0  0
   -3.3513    0.0000    0.0000 O   0  0  0  0  0  0  0  0  0  0  0  0
   -2.3461    0.0000    0.0000 C   0  0  0  0  0  0  0  0  0  0  0  0
   -2.8524    0.0000    0.0000 O   0  0  0  0  0  0  0  0  0  0  0  0
  1  2  1  0      
  2  3  1  0      
  3  4  1  0      
  4  5  1  0      
  5  6  1  0      
  6  7  1  0      
  7  8  1  0      
  8  9  1  0      
  9 10  2  0      
  5 10  1  0      
 10 11  1  0      
 11 12  2  0      
 12 13  1  0      
 13 14  1  0      
 13 15  2  0      
  9 15  1  0      
  6 16  1  0      
  2 16  1  0      
 16 17  1  0      
 17 18  1  0      
 18 19  1  0      
 18 20  1  0      
  2 20  1  0      
 20 21  1  0      
M  END
>  <Bioactivity>
Estriol is an antagonist of the G-protein coupled estrogen receptor in estrogen receptor-negative breast Y cells.

>  <CAS>
50-27-1

>  <Col>
10

>  <Formula>
C18H24O3

>  <ID>
T1571

>  <Index>
449

>  <MOLENAME>
Estriol

>  <MolWt>
288.39

>  <Pathways>
Endocrinology/ Hormones

>  <Plate>
PLATE 006

>  <QR code>
1151480265

>  <Receptor>
ER ; MRP1

>  <Reference>
1. Lappano R, et al. Mol Cell Endocrinol. 2010, 320(1-2), 162-170.

>  <Row>
E

>  <SMILES>
CC12CCC3C(CCC4=C3C=CC(O)=C4)C1CC(O)C2O

>  <Target>
Estrogen/Progestogen Receptor agonist

>  <Weight>
10.1mg

$$$$
Lab-1.sdf
  ChemDraw05232018482D

  7  7  0  0  0  0  0  0  0  0999 V2000
    0.3923    0.0000    0.0000 N   0  0  0  0  0  0  0  0  0  0  0  0
    0.3923    0.0000    0.0000 C   0  0  0  0  0  0  0  0  0  0  0  0
    1.0597    0.0000    0.0000 C   0  0  0  0  0  0  0  0  0  0  0  0
    0.8048    0.0000    0.0000 O   0  0  0  0  0  0  0  0  0  0  0  0
   -0.0202    0.0000    0.0000 N   0  0  0  0  0  0  0  0  0  0  0  0
   -0.2752    0.0000    0.0000 C   0  0  0  0  0  0  0  0  0  0  0  0
   -1.0597    0.0000    0.0000 O   0  0  0  0  0  0  0  0  0  0  0  0
  1  2  1  0      
  2  3  1  0      
  3  4  1  0      
  4  5  1  0      
  5  6  1  0      
  2  6  1  0      
  6  7  2  0      
M  END
>  <Bioactivity>
D-Cycloserine is an analog of the amino acid D-alanine.

>  <CAS>
68-41-7

>  <Col>
11

>  <Formula>
C3H6N2O2

>  <ID>
T1589

>  <Index>
450

>  <MOLENAME>
D-Cycloserine

>  <MolWt>
102.09

>  <Pathways>
Microbiology & Virology

>  <Plate>
PLATE 006

>  <QR code>
1151480264

>  <Receptor>
D-alanine--D-alanine ligase A

>  <Reference>
1. Noda M, et al. J Biol Chem. 2004 Oct 29; 279(44): 46143-52. 

>  <Row>
E

>  <SMILES>
NC1CONC1=O

>  <Target>
Antibiotic

>  <Weight>
10.2mg

$$$$
Lab-1.sdf
  ChemDraw05232018482D

 17 18  0  0  0  0  0  0  0  0999 V2000
   -1.1645    0.0000    0.0000 O   0  0  0  0  0  0  0  0  0  0  0  0
   -0.4500    0.0000    0.0000 C   0  0  0  0  0  0  0  0  0  0  0  0
   -0.4500    0.0000    0.0000 C   0  0  0  0  0  0  0  0  0  0  0  0
    0.2173    0.0000    0.0000 O   0  0  0  0  0  0  0  0  0  0  0  0
   -0.0375    0.0000    0.0000 C   0  0  0  0  0  0  0  0  0  0  0  0
   -0.8625    0.0000    0.0000 C   0  0  0  0  0  0  0  0  0  0  0  0
   -1.3475    0.0000    0.0000 O   0  0  0  0  0  0  0  0  0  0  0  0
   -1.1175    0.0000    0.0000 C   0  0  0  0  0  0  0  0  0  0  0  0
   -1.9021    0.0000    0.0000 O   0  0  0  0  0  0  0  0  0  0  0  0
    0.4473    0.0000    0.0000 N   0  0  0  0  0  0  0  0  0  0  0  0
    1.2678    0.0000    0.0000 C   0  0  0  0  0  0  0  0  0  0  0  0
    1.7527    0.0000    0.0000 C   0  0  0  0  0  0  0  0  0  0  0  0
    1.4171    0.0000    0.0000 C   0  0  0  0  0  0  0  0  0  0  0  0
    1.9021    0.0000    0.0000 O   0  0  0  0  0  0  0  0  0  0  0  0
    0.5967    0.0000    0.0000 N   0  0  0  0  0  0  0  0  0  0  0  0
    0.1117    0.0000    0.0000 C   0  0  0  0  0  0  0  0  0  0  0  0
   -0.7086    0.0000    0.0000 O   0  0  0  0  0  0  0  0  0  0  0  0
  1  2  1  0      
  2  3  1  0      
  3  4  1  0      
  4  5  1  0      
  5  6  1  0      
  6  7  1  0      
  6  8  1  0      
  3  8  1  0      
  8  9  1  0      
  5 10  1  0      
 10 11  1  0      
 11 12  2  0      
 12 13  1  0      
 13 14  2  0      
 13 15  1  0      
 15 16  1  0      
 10 16  1  0      
 16 17  2  0      
M  END
>  <Bioactivity>
Uridine, Trisodium Salt is an energy-rich precursor in the enzymatic biosynthesis of RNA, a potent vasodilator, and induces contractile responses in some tissues.

>  <CAS>
58-96-8

>  <Col>
2

>  <Formula>
C9H12N2O6

>  <ID>
T2221

>  <Index>
451

>  <MOLENAME>
Uridine

>  <MolWt>
244.2

>  <Pathways>
DNA Damage/DNA Repair

>  <Plate>
PLATE 006

>  <QR code>
1151480252

>  <Receptor>
LSm6

>  <Reference>
1. Imming P, et al. Nat Rev Drug Discov. 2006, 5(10):821-34.

>  <Row>
F

>  <SMILES>
OCC1OC(C(O)C1O)N1C=CC(=O)NC1=O

>  <Target>
DNA Synthesis

>  <Weight>
10.2mg

$$$$
Lab-1.sdf
  ChemDraw05232018482D

 44 48  0  0  0  0  0  0  0  0999 V2000
   -0.3138    0.0000    0.0000 N   0  0  0  0  0  0  0  0  0  0  0  0
   -0.2276    0.0000    0.0000 C   0  0  0  0  0  0  0  0  0  0  0  0
    0.5261    0.0000    0.0000 O   0  0  0  0  0  0  0  0  0  0  0  0
   -0.8950    0.0000    0.0000 C   0  0  0  0  0  0  0  0  0  0  0  0
   -0.8088    0.0000    0.0000 C   0  0  0  0  0  0  0  0  0  0  0  0
   -1.4762    0.0000    0.0000 N   0  3  0  0  0  0  0  0  0  0  0  0
   -2.2298    0.0000    0.0000 C   0  0  0  0  0  0  0  0  0  0  0  0
   -2.3160    0.0000    0.0000 C   0  0  0  0  0  0  0  0  0  0  0  0
   -1.6486    0.0000    0.0000 C   0  0  0  0  0  0  0  0  0  0  0  0
   -1.3899    0.0000    0.0000 C   0  0  0  0  0  0  0  0  0  0  0  0
   -0.6754    0.0000    0.0000 O   0  0  0  0  0  0  0  0  0  0  0  0
   -0.8469    0.0000    0.0000 C   0  0  0  0  0  0  0  0  0  0  0  0
   -0.2950    0.0000    0.0000 C   0  0  0  0  0  0  0  0  0  0  0  0
   -0.5498    0.0000    0.0000 O   0  0  0  0  0  0  0  0  0  0  0  0
    0.0021    0.0000    0.0000 P   0  0  0  0  0  0  0  0  0  0  0  0
   -0.6110    0.0000    0.0000 O   0  5  0  0  0  0  0  0  0  0  0  0
    0.6153    0.0000    0.0000 O   0  0  0  0  0  0  0  0  0  0  0  0
    0.5541    0.0000    0.0000 O   0  0  0  0  0  0  0  0  0  0  0  0
    0.2992    0.0000    0.0000 P   0  0  0  0  0  0  0  0  0  0  0  0
   -0.4853    0.0000    0.0000 O   0  5  0  0  0  0  0  0  0  0  0  0
    1.0838    0.0000    0.0000 O   0  0  0  0  0  0  0  0  0  0  0  0
    0.0443    0.0000    0.0000 O   0  0  0  0  0  0  0  0  0  0  0  0
    0.5963    0.0000    0.0000 C   0  0  0  0  0  0  0  0  0  0  0  0
    0.3414    0.0000    0.0000 C   0  0  0  0  0  0  0  0  0  0  0  0
    0.8263    0.0000    0.0000 O   0  0  0  0  0  0  0  0  0  0  0  0
    0.3414    0.0000    0.0000 C   0  0  0  0  0  0  0  0  0  0  0  0
   -0.4432    0.0000    0.0000 C   0  0  0  0  0  0  0  0  0  0  0  0
   -1.1106    0.0000    0.0000 O   0  0  0  0  0  0  0  0  0  0  0  0
   -0.4432    0.0000    0.0000 C   0  0  0  0  0  0  0  0  0  0  0  0
   -1.1106    0.0000    0.0000 O   0  0  0  0  0  0  0  0  0  0  0  0
    0.5963    0.0000    0.0000 N   0  0  0  0  0  0  0  0  0  0  0  0
    0.1114    0.0000    0.0000 C   0  0  0  0  0  0  0  0  0  0  0  0
    0.5963    0.0000    0.0000 N   0  0  0  0  0  0  0  0  0  0  0  0
    1.3809    0.0000    0.0000 C   0  0  0  0  0  0  0  0  0  0  0  0
    1.3809    0.0000    0.0000 C   0  0  0  0  0  0  0  0  0  0  0  0
    2.0954    0.0000    0.0000 N   0  0  0  0  0  0  0  0  0  0  0  0
    2.8099    0.0000    0.0000 C   0  0  0  0  0  0  0  0  0  0  0  0
    2.8099    0.0000    0.0000 N   0  0  0  0  0  0  0  0  0  0  0  0
    2.0954    0.0000    0.0000 C   0  0  0  0  0  0  0  0  0  0  0  0
    2.0954    0.0000    0.0000 N   0  0  0  0  0  0  0  0  0  0  0  0
   -1.6674    0.0000    0.0000 C   0  0  0  0  0  0  0  0  0  0  0  0
   -2.0799    0.0000    0.0000 O   0  0  0  0  0  0  0  0  0  0  0  0
   -2.0030    0.0000    0.0000 C   0  0  0  0  0  0  0  0  0  0  0  0
   -2.8099    0.0000    0.0000 O   0  0  0  0  0  0  0  0  0  0  0  0
  1  2  1  0      
  2  3  2  0      
  2  4  1  0      
  4  5  2  0      
  5  6  1  0      
  6  7  2  0      
  7  8  1  0      
  8  9  2  0      
  4  9  1  0      
  6 10  1  0      
 10 11  1  0      
 11 12  1  0      
 12 13  1  0      
 13 14  1  0      
 14 15  1  0      
 15 16  1  0      
 15 17  2  0      
 15 18  1  0      
 18 19  1  0      
 19 20  1  0      
 19 21  2  0      
 19 22  1  0      
 22 23  1  0      
 23 24  1  0      
 24 25  1  0      
 25 26  1  0      
 26 27  1  0      
 27 28  1  0      
 27 29  1  0      
 24 29  1  0      
 29 30  1  0      
 26 31  1  0      
 31 32  1  0      
 32 33  2  0      
 33 34  1  0      
 34 35  2  0      
 31 35  1  0      
 35 36  1  0      
 36 37  2  0      
 37 38  1  0      
 38 39  2  0      
 34 39  1  0      
 39 40  1  0      
 12 41  1  0      
 41 42  1  0      
 41 43  1  0      
 10 43  1  0      
 43 44  1  0      
M  CHG  3   6   1  16  -1  20  -1
M  END
>  <Bioactivity>
NAD+ is a coenzyme composed of ribosylnicotinamide 5&#39;-diphosphate coupled to adenosine 5&#39;-phosphate by pyrophosphate linkage.

>  <CAS>
53-84-9

>  <Col>
3

>  <Formula>
C21H27N7O14P2

>  <ID>
T1609

>  <Index>
452

>  <MOLENAME>
Cozymasei(NAD+)

>  <MolWt>
663.43

>  <Pathways>
Metabolism

>  <Plate>
PLATE 006

>  <QR code>
1151480253

>  <Receptor>
NADPH; NADH

>  <Reference>
1. Pang J, et al. J Cell Physiol. 2015 Jul;230(7):1607-13.

>  <Row>
F

>  <SMILES>
NC(=O)C1=C[N+](=CC=C1)C1OC(COP([O-])(=O)OP([O-])(=O)OCC2OC(C(O)C2O)N2C=NC3=C2N=CN=C3N)C(O)C1O

>  <Target>
Dehydrogenase

>  <Weight>
10.3mg

$$$$
Lab-1.sdf
  ChemDraw05232018482D

 26 29  0  0  0  0  0  0  0  0999 V2000
   -1.8788    0.0000    0.0000 C   0  0  0  0  0  0  0  0  0  0  0  0
   -1.5190    0.0000    0.0000 C   0  0  0  0  0  0  0  0  0  0  0  0
   -0.9871    0.0000    0.0000 C   0  0  0  0  0  0  0  0  0  0  0  0
   -0.1750    0.0000    0.0000 C   0  0  0  0  0  0  0  0  0  0  0  0
    0.3568    0.0000    0.0000 O   0  0  0  0  0  0  0  0  0  0  0  0
    0.1053    0.0000    0.0000 C   0  0  0  0  0  0  0  0  0  0  0  0
   -0.4265    0.0000    0.0000 C   0  0  0  0  0  0  0  0  0  0  0  0
   -0.1463    0.0000    0.0000 C   0  0  0  0  0  0  0  0  0  0  0  0
    0.6659    0.0000    0.0000 C   0  0  0  0  0  0  0  0  0  0  0  0
    1.1977    0.0000    0.0000 C   0  0  0  0  0  0  0  0  0  0  0  0
    2.0098    0.0000    0.0000 C   0  0  0  0  0  0  0  0  0  0  0  0
    2.5417    0.0000    0.0000 C   0  0  0  0  0  0  0  0  0  0  0  0
    3.3538    0.0000    0.0000 O   0  0  0  0  0  0  0  0  0  0  0  0
    2.2614    0.0000    0.0000 C   0  0  0  0  0  0  0  0  0  0  0  0
    1.4492    0.0000    0.0000 C   0  0  0  0  0  0  0  0  0  0  0  0
    0.9174    0.0000    0.0000 C   0  0  0  0  0  0  0  0  0  0  0  0
    0.6371    0.0000    0.0000 C   0  0  0  0  0  0  0  0  0  0  0  0
   -1.2387    0.0000    0.0000 C   0  0  0  0  0  0  0  0  0  0  0  0
   -1.8900    0.0000    0.0000 C   0  0  0  0  0  0  0  0  0  0  0  0
   -2.5729    0.0000    0.0000 C   0  0  0  0  0  0  0  0  0  0  0  0
   -2.3436    0.0000    0.0000 C   0  0  0  0  0  0  0  0  0  0  0  0
   -3.1045    0.0000    0.0000 O   0  0  0  0  0  0  0  0  0  0  0  0
   -2.4650    0.0000    0.0000 C   0  0  0  0  0  0  0  0  0  0  0  0
   -1.8189    0.0000    0.0000 O   0  0  0  0  0  0  0  0  0  0  0  0
   -3.2324    0.0000    0.0000 C   0  0  0  0  0  0  0  0  0  0  0  0
   -3.3538    0.0000    0.0000 O   0  0  0  0  0  0  0  0  0  0  0  0
  1  2  1  0      
  2  3  1  0      
  3  4  1  0      
  4  5  1  0      
  4  6  1  0      
  6  7  1  0      
  7  8  1  0      
  8  9  1  0      
  9 10  1  0      
 10 11  2  0      
 11 12  1  0      
 12 13  2  0      
 12 14  1  0      
 14 15  1  0      
 15 16  1  0      
  6 16  1  0      
 10 16  1  0      
 16 17  1  0      
  7 18  1  0      
  2 18  1  0      
 18 19  1  0      
 19 20  1  0      
 20 21  1  0      
  2 21  1  0      
 21 22  1  0      
 21 23  1  0      
 23 24  2  0      
 23 25  1  0      
 25 26  1  0      
M  END
>  <Bioactivity>
Hydrocortisone is a main?glucocorticoid?secreted by the adrenal cortex.

>  <CAS>
50-23-7

>  <Col>
4

>  <Formula>
C21H30O5

>  <ID>
T1614

>  <Index>
453

>  <MOLENAME>
Hydrocortisone

>  <MolWt>
362.46

>  <Pathways>
Endocrinology/ Hormones

>  <Plate>
PLATE 006

>  <QR code>
1151480254

>  <Receptor>
Annexin A1; Glucocorticoid Receptor; MRP1

>  <Reference>
1. Grossman R, et al. Ann N Y Acad Sci. 2006 Jul;1071:410-21.

>  <Row>
F

>  <SMILES>
CC12CC(O)C3C(CCC4=CC(=O)CCC34C)C1CCC2(O)C(=O)CO

>  <Target>
Annexin A; Glucocorticoid Receptor inhibitor; MRP inhibitor

>  <Weight>
10.2mg

$$$$
Lab-1.sdf
  ChemDraw05232018482D

 21 21  0  0  0  0  0  0  0  0999 V2000
   -1.7861    0.0000    0.0000 C   0  0  0  0  0  0  0  0  0  0  0  0
   -1.7861    0.0000    0.0000 C   0  0  0  0  0  0  0  0  0  0  0  0
   -2.5006    0.0000    0.0000 O   0  0  0  0  0  0  0  0  0  0  0  0
   -1.0717    0.0000    0.0000 N   0  0  0  0  0  0  0  0  0  0  0  0
   -1.0717    0.0000    0.0000 C   0  0  0  0  0  0  0  0  0  0  0  0
   -1.7861    0.0000    0.0000 C   0  0  0  0  0  0  0  0  0  0  0  0
   -2.5006    0.0000    0.0000 O   0  0  0  0  0  0  0  0  0  0  0  0
   -1.7861    0.0000    0.0000 C   0  0  0  0  0  0  0  0  0  0  0  0
   -1.0717    0.0000    0.0000 C   0  0  0  0  0  0  0  0  0  0  0  0
   -1.6019    0.0000    0.0000 O   0  0  0  0  0  0  0  0  0  0  0  0
   -0.3573    0.0000    0.0000 O   0  0  0  0  0  0  0  0  0  0  0  0
   -0.3573    0.0000    0.0000 C   0  0  0  0  0  0  0  0  0  0  0  0
    0.3572    0.0000    0.0000 C   0  0  0  0  0  0  0  0  0  0  0  0
    0.3572    0.0000    0.0000 O   0  0  0  0  0  0  0  0  0  0  0  0
    1.0717    0.0000    0.0000 C   0  0  0  0  0  0  0  0  0  0  0  0
    1.0717    0.0000    0.0000 O   0  0  0  0  0  0  0  0  0  0  0  0
    1.7862    0.0000    0.0000 C   0  0  0  0  0  0  0  0  0  0  0  0
    2.5006    0.0000    0.0000 O   0  0  0  0  0  0  0  0  0  0  0  0
   -0.5414    0.0000    0.0000 C   0  0  0  0  0  0  0  0  0  0  0  0
    0.2710    0.0000    0.0000 O   0  0  0  0  0  0  0  0  0  0  0  0
   -0.8236    0.0000    0.0000 O   0  0  0  0  0  0  0  0  0  0  0  0
  1  2  1  0      
  2  3  2  0      
  2  4  1  0      
  4  5  1  0      
  5  6  1  0      
  6  7  1  0      
  6  8  1  0      
  8  9  1  0      
  9 10  1  0      
  9 11  1  0      
 11 12  1  0      
  5 12  1  0      
 12 13  1  0      
 13 14  1  0      
 13 15  1  0      
 15 16  1  0      
 15 17  1  0      
 17 18  1  0      
  9 19  1  0      
 19 20  1  0      
 19 21  2  0      
M  END
>  <Bioactivity>
N-Acetylneuraminic acid (Neu5Ac or NANA) is the predominant sialic acid found in mammalian cells.

>  <CAS>
131-48-6

>  <Col>
5

>  <Formula>
C11H19NO9

>  <ID>
T1638

>  <Index>
454

>  <MOLENAME>
N-Acetylneuraminic acid

>  <MolWt>
309.27

>  <Pathways>
Others

>  <Plate>
PLATE 006

>  <QR code>
1151480255

>  <Receptor>
Others

>  <Reference>
1. Severi E, et al. Microbiology. 2007 Sep;153(Pt 9):2817-22.

>  <Row>
F

>  <SMILES>
CC(=O)NC1C(O)CC(O)(OC1C(O)C(O)CO)C(O)=O

>  <Target>
Others

>  <Weight>
10.1mg

$$$$
Lab-1.sdf
  ChemDraw05232018482D

 40 41  0  0  0  0  0  0  0  0999 V2000
   -1.7861    0.0000    0.0000 C   0  0  0  0  0  0  0  0  0  0  0  0
   -1.7861    0.0000    0.0000 C   0  0  0  0  0  0  0  0  0  0  0  0
   -2.5006    0.0000    0.0000 C   0  0  0  0  0  0  0  0  0  0  0  0
   -3.2150    0.0000    0.0000 C   0  0  0  0  0  0  0  0  0  0  0  0
   -3.9295    0.0000    0.0000 C   0  0  0  0  0  0  0  0  0  0  0  0
   -4.6440    0.0000    0.0000 C   0  0  0  0  0  0  0  0  0  0  0  0
   -4.6440    0.0000    0.0000 C   0  0  0  0  0  0  0  0  0  0  0  0
   -5.3584    0.0000    0.0000 C   0  0  0  0  0  0  0  0  0  0  0  0
   -5.3584    0.0000    0.0000 C   0  0  0  0  0  0  0  0  0  0  0  0
   -6.0729    0.0000    0.0000 C   0  0  0  0  0  0  0  0  0  0  0  0
   -6.0729    0.0000    0.0000 C   0  0  0  0  0  0  0  0  0  0  0  0
   -5.3584    0.0000    0.0000 C   0  0  0  0  0  0  0  0  0  0  0  0
   -6.7874    0.0000    0.0000 C   0  0  0  0  0  0  0  0  0  0  0  0
   -7.5019    0.0000    0.0000 C   0  0  0  0  0  0  0  0  0  0  0  0
   -7.5019    0.0000    0.0000 C   0  0  0  0  0  0  0  0  0  0  0  0
   -6.7874    0.0000    0.0000 C   0  0  0  0  0  0  0  0  0  0  0  0
   -7.1747    0.0000    0.0000 C   0  0  0  0  0  0  0  0  0  0  0  0
   -6.4001    0.0000    0.0000 C   0  0  0  0  0  0  0  0  0  0  0  0
   -1.0716    0.0000    0.0000 C   0  0  0  0  0  0  0  0  0  0  0  0
   -0.3572    0.0000    0.0000 C   0  0  0  0  0  0  0  0  0  0  0  0
    0.3573    0.0000    0.0000 C   0  0  0  0  0  0  0  0  0  0  0  0
    1.0717    0.0000    0.0000 C   0  0  0  0  0  0  0  0  0  0  0  0
    1.7862    0.0000    0.0000 C   0  0  0  0  0  0  0  0  0  0  0  0
    1.7862    0.0000    0.0000 C   0  0  0  0  0  0  0  0  0  0  0  0
    2.5006    0.0000    0.0000 C   0  0  0  0  0  0  0  0  0  0  0  0
    3.2151    0.0000    0.0000 C   0  0  0  0  0  0  0  0  0  0  0  0
    3.9296    0.0000    0.0000 C   0  0  0  0  0  0  0  0  0  0  0  0
    4.6441    0.0000    0.0000 C   0  0  0  0  0  0  0  0  0  0  0  0
    4.6441    0.0000    0.0000 C   0  0  0  0  0  0  0  0  0  0  0  0
    5.3585    0.0000    0.0000 C   0  0  0  0  0  0  0  0  0  0  0  0
    5.3585    0.0000    0.0000 C   0  0  0  0  0  0  0  0  0  0  0  0
    6.0730    0.0000    0.0000 C   0  0  0  0  0  0  0  0  0  0  0  0
    6.0730    0.0000    0.0000 C   0  0  0  0  0  0  0  0  0  0  0  0
    5.3585    0.0000    0.0000 C   0  0  0  0  0  0  0  0  0  0  0  0
    6.7875    0.0000    0.0000 C   0  0  0  0  0  0  0  0  0  0  0  0
    7.5019    0.0000    0.0000 C   0  0  0  0  0  0  0  0  0  0  0  0
    7.5019    0.0000    0.0000 C   0  0  0  0  0  0  0  0  0  0  0  0
    6.7875    0.0000    0.0000 C   0  0  0  0  0  0  0  0  0  0  0  0
    7.1748    0.0000    0.0000 C   0  0  0  0  0  0  0  0  0  0  0  0
    6.4002    0.0000    0.0000 C   0  0  0  0  0  0  0  0  0  0  0  0
  1  2  1  0      
  3  2  1  4      
  3  4  2  0      
  5  4  1  4      
  5  6  2  0      
  6  7  1  0      
  8  6  1  4      
  8  9  2  0      
  9 10  1  0      
 10 11  2  0      
 11 12  1  0      
 11 13  1  0      
 13 14  1  0      
 14 15  1  0      
 15 16  1  0      
 10 16  1  0      
 16 17  1  0      
 16 18  1  0      
  2 19  2  0      
 19 20  1  4      
 20 21  2  0      
 21 22  1  4      
 22 23  2  0      
 23 24  1  4      
 25 23  1  4      
 25 26  2  0      
 27 26  1  4      
 27 28  2  0      
 28 29  1  0      
 30 28  1  4      
 30 31  2  0      
 31 32  1  0      
 32 33  2  0      
 33 34  1  0      
 33 35  1  0      
 35 36  1  0      
 36 37  1  0      
 37 38  1  0      
 32 38  1  0      
 38 39  1  0      
 38 40  1  0      
M  END
>  <Bioactivity>
¦Â-Carotene is an organic compound and classified as a terpenoid. It is a precursor (inactive form) of vitamin A.

>  <CAS>
7235-40-7

>  <Col>
6

>  <Formula>
C40H56

>  <ID>
T1633

>  <Index>
455

>  <MOLENAME>
Beta-Carotene

>  <MolWt>
536.87

>  <Pathways>
Vitamin

>  <Plate>
PLATE 006

>  <QR code>
1151480256

>  <Receptor>
VA

>  <Reference>
1. Kasperczyk S, et al. Toxicol Appl Pharmacol. 2014 Oct 1;280(1):36-41. 

>  <Row>
F

>  <SMILES>
CC(C=CC=C(C)C=CC1=C(C)CCCC1(C)C)=CC=CC=C(C)C=CC=C(C)C=CC1=C(C)CCCC1(C)C

>  <Target>
VA

>  <Weight>
10.3mg

$$$$
Lab-1.sdf
  ChemDraw05232018482D

 12 11  0  0  0  0  0  0  0  0999 V2000
   -2.2502    0.0000    0.0000 Cl  0  0  0  0  0  0  0  0  0  0  0  0
    0.1068    0.0000    0.0000 N   0  0  0  0  0  0  0  0  0  0  0  0
    0.1068    0.0000    0.0000 C   0  0  0  0  0  0  0  0  0  0  0  0
    0.8213    0.0000    0.0000 C   0  0  0  0  0  0  0  0  0  0  0  0
    0.8213    0.0000    0.0000 C   0  0  0  0  0  0  0  0  0  0  0  0
    1.5358    0.0000    0.0000 C   0  0  0  0  0  0  0  0  0  0  0  0
    1.5358    0.0000    0.0000 C   0  0  0  0  0  0  0  0  0  0  0  0
    2.2502    0.0000    0.0000 O   0  0  0  0  0  0  0  0  0  0  0  0
    0.8213    0.0000    0.0000 C   0  0  0  0  0  0  0  0  0  0  0  0
    0.8213    0.0000    0.0000 O   0  0  0  0  0  0  0  0  0  0  0  0
    0.1068    0.0000    0.0000 C   0  0  0  0  0  0  0  0  0  0  0  0
    0.1068    0.0000    0.0000 C   0  0  0  0  0  0  0  0  0  0  0  0
  2  3  1  0      
  3  4  1  0      
  4  5  1  0      
  5  6  2  0      
  6  7  1  0      
  7  8  1  0      
  7  9  2  0      
  9 10  1  0      
  9 11  1  0      
 11 12  2  0      
  5 12  1  0      
M  END
>  <Bioactivity>
Dopamine HCl is a catecholamine neurotransmitter present in a wide variety of animals,And a dopamine D1-5 receptors agonist. 

>  <CAS>
62-31-7

>  <Col>
7

>  <Formula>
C8H12ClNO2

>  <ID>
T1644

>  <Index>
456

>  <MOLENAME>
Dopamine hydrochloride

>  <MolWt>
189.64

>  <Pathways>
Neuroscience

>  <Plate>
PLATE 006

>  <QR code>
1151480257

>  <Receptor>
5-HT receptor ; Dopamine receptor; Sodium-dependent dopamine transporter

>  <Reference>
1. Ostadali MR, et al . Iran J Allergy Asthma Immunol. 2004 Dec;3(4):169-74.

>  <Row>
F

>  <SMILES>
Cl.NCCC1=CC(O)=C(O)C=C1

>  <Target>
5-HT receptor antagonist; Dopamine Receptor agonist; Dopamine uptake inhibitor

>  <Weight>
10mg

$$$$
Lab-1.sdf
  ChemDraw05232018482D

 23 24  0  0  0  0  0  0  0  0999 V2000
   -0.7145    0.0000    0.0000 N   0  0  0  0  0  0  0  0  0  0  0  0
   -0.0001    0.0000    0.0000 C   0  0  0  0  0  0  0  0  0  0  0  0
    0.7144    0.0000    0.0000 C   0  0  0  0  0  0  0  0  0  0  0  0
    0.7144    0.0000    0.0000 C   0  0  0  0  0  0  0  0  0  0  0  0
    1.4289    0.0000    0.0000 C   0  0  0  0  0  0  0  0  0  0  0  0
    1.4289    0.0000    0.0000 C   0  0  0  0  0  0  0  0  0  0  0  0
    2.1434    0.0000    0.0000 I   0  0  0  0  0  0  0  0  0  0  0  0
    0.7144    0.0000    0.0000 C   0  0  0  0  0  0  0  0  0  0  0  0
    0.7144    0.0000    0.0000 O   0  0  0  0  0  0  0  0  0  0  0  0
   -0.0001    0.0000    0.0000 C   0  0  0  0  0  0  0  0  0  0  0  0
   -0.0001    0.0000    0.0000 C   0  0  0  0  0  0  0  0  0  0  0  0
   -0.7145    0.0000    0.0000 C   0  0  0  0  0  0  0  0  0  0  0  0
   -0.7145    0.0000    0.0000 I   0  0  0  0  0  0  0  0  0  0  0  0
   -1.4289    0.0000    0.0000 C   0  0  0  0  0  0  0  0  0  0  0  0
   -2.1434    0.0000    0.0000 O   0  0  0  0  0  0  0  0  0  0  0  0
   -1.4289    0.0000    0.0000 C   0  0  0  0  0  0  0  0  0  0  0  0
   -0.7145    0.0000    0.0000 C   0  0  0  0  0  0  0  0  0  0  0  0
   -0.0001    0.0000    0.0000 C   0  0  0  0  0  0  0  0  0  0  0  0
   -0.7145    0.0000    0.0000 I   0  0  0  0  0  0  0  0  0  0  0  0
   -0.0001    0.0000    0.0000 C   0  0  0  0  0  0  0  0  0  0  0  0
   -0.0001    0.0000    0.0000 C   0  0  0  0  0  0  0  0  0  0  0  0
   -0.7145    0.0000    0.0000 O   0  0  0  0  0  0  0  0  0  0  0  0
    0.7144    0.0000    0.0000 O   0  0  0  0  0  0  0  0  0  0  0  0
  1  2  1  0      
  2  3  1  0      
  3  4  1  0      
  4  5  2  0      
  5  6  1  0      
  6  7  1  0      
  6  8  2  0      
  8  9  1  0      
  9 10  1  0      
 10 11  2  0      
 11 12  1  0      
 12 13  1  0      
 12 14  2  0      
 14 15  1  0      
 14 16  1  0      
 16 17  2  0      
 10 17  1  0      
  8 18  1  0      
 18 19  1  0      
 18 20  2  0      
  4 20  1  0      
  2 21  1  0      
 21 22  1  0      
 21 23  2  0      
M  END
>  <Bioactivity>
Liothyronine is a T3 thyroid hormone normally synthesized and secreted by the thyroid gland in much smaller quantities than thyroxine (T4). Most T3 is derived from peripheral monodeiodination of T4 at
 the 5' position of the outer ring of the iodothyronine nucleus. The hormone finally delivered and used by the tissues is mainly T3.

>  <CAS>
6893-02-3

>  <Col>
8

>  <Formula>
C15H12I3NO4

>  <ID>
T1653

>  <Index>
457

>  <MOLENAME>
Lyothyronine

>  <MolWt>
650.97

>  <Pathways>
Endocrinology/ Hormones

>  <Plate>
PLATE 006

>  <QR code>
1151480258

>  <Receptor>
Thyroid hormone receptor

>  <Reference>
1. Jiang W, et al. J Endocrinol. 2004 Aug; 182(2):295-302.

>  <Row>
F

>  <SMILES>
NC(CC1=CC(I)=C(OC2=CC(I)=C(O)C=C2)C(I)=C1)C(O)=O

>  <Target>
Thyroid hormone receptor agonist

>  <Weight>
10.3mg

$$$$
Lab-1.sdf
  ChemDraw05232018482D

 30 31  0  0  0  0  0  0  0  0999 V2000
   -1.2234    0.0000    0.0000 N   0  0  0  0  0  0  0  0  0  0  0  0
   -2.0484    0.0000    0.0000 C   0  0  0  0  0  0  0  0  0  0  0  0
   -2.4608    0.0000    0.0000 C   0  0  0  0  0  0  0  0  0  0  0  0
   -3.2858    0.0000    0.0000 N   0  0  0  0  0  0  0  0  0  0  0  0
    2.6463    0.0000    0.0000 C   0  0  0  0  0  0  0  0  0  0  0  0
    2.6463    0.0000    0.0000 N   0  0  0  0  0  0  0  0  0  0  0  0
    1.9318    0.0000    0.0000 C   0  0  0  0  0  0  0  0  0  0  0  0
    1.9318    0.0000    0.0000 C   0  0  0  0  0  0  0  0  0  0  0  0
    1.1472    0.0000    0.0000 N   0  0  0  0  0  0  0  0  0  0  0  0
    0.6624    0.0000    0.0000 C   0  0  0  0  0  0  0  0  0  0  0  0
    1.1472    0.0000    0.0000 N   0  0  0  0  0  0  0  0  0  0  0  0
    2.6463    0.0000    0.0000 C   0  0  0  0  0  0  0  0  0  0  0  0
    2.6463    0.0000    0.0000 O   0  0  0  0  0  0  0  0  0  0  0  0
    3.3608    0.0000    0.0000 N   0  0  0  0  0  0  0  0  0  0  0  0
    4.0752    0.0000    0.0000 C   0  0  0  0  0  0  0  0  0  0  0  0
    3.3608    0.0000    0.0000 C   0  0  0  0  0  0  0  0  0  0  0  0
    4.0752    0.0000    0.0000 O   0  0  0  0  0  0  0  0  0  0  0  0
   -2.0912    0.0000    0.0000 C   0  0  0  0  0  0  0  0  0  0  0  0
   -2.0912    0.0000    0.0000 N   0  0  0  0  0  0  0  0  0  0  0  0
   -2.8057    0.0000    0.0000 C   0  0  0  0  0  0  0  0  0  0  0  0
   -2.8057    0.0000    0.0000 C   0  0  0  0  0  0  0  0  0  0  0  0
   -3.5903    0.0000    0.0000 N   0  0  0  0  0  0  0  0  0  0  0  0
   -4.0752    0.0000    0.0000 C   0  0  0  0  0  0  0  0  0  0  0  0
   -3.5903    0.0000    0.0000 N   0  0  0  0  0  0  0  0  0  0  0  0
   -2.0912    0.0000    0.0000 C   0  0  0  0  0  0  0  0  0  0  0  0
   -2.0912    0.0000    0.0000 O   0  0  0  0  0  0  0  0  0  0  0  0
   -1.3767    0.0000    0.0000 N   0  0  0  0  0  0  0  0  0  0  0  0
   -0.6623    0.0000    0.0000 C   0  0  0  0  0  0  0  0  0  0  0  0
   -1.3767    0.0000    0.0000 C   0  0  0  0  0  0  0  0  0  0  0  0
   -0.6623    0.0000    0.0000 O   0  0  0  0  0  0  0  0  0  0  0  0
  1  2  1  0      
  2  3  1  0      
  3  4  1  0      
  5  6  1  0      
  6  7  1  0      
  7  8  2  0      
  8  9  1  0      
  9 10  1  0      
 10 11  2  0      
  7 11  1  0      
  8 12  1  0      
 12 13  2  0      
 12 14  1  0      
 14 15  1  0      
 14 16  1  0      
  6 16  1  0      
 16 17  2  0      
 18 19  1  0      
 19 20  1  0      
 20 21  2  0      
 21 22  1  0      
 22 23  1  0      
 23 24  2  0      
 20 24  1  0      
 21 25  1  0      
 25 26  2  0      
 25 27  1  0      
 27 28  1  0      
 27 29  1  0      
 19 29  1  0      
 29 30  2  0      
M  END
>  <Bioactivity>
Aminophylline is a competitive nonselective phosphodiesterase inhibitor that is used to treat airway obstruction from asthma or COPD.

>  <CAS>
317-34-0

>  <Col>
9

>  <Formula>
2C7H8O2?C2H8N2

>  <ID>
T1681

>  <Index>
458

>  <MOLENAME>
Aminophylline

>  <MolWt>
420.43

>  <Pathways>
Metabolism; GPCR/G Protein; Chromatin/Epigenetic

>  <Plate>
PLATE 006

>  <QR code>
1151480259

>  <Receptor>
PDE; Adenosine receptor; HDAC2

>  <Reference>
1. Hirota K, et al. Acta Anaesthesiol Scand. 2002 Mar;46(3):297-302. 

>  <Row>
F

>  <SMILES>
NCCN.CN1C2=C(NC=N2)C(=O)N(C)C1=O.CN1C2=C(NC=N2)C(=O)N(C)C1=O

>  <Target>
PDE inhibitor; Adenosine receptor antagonist; HDAC2 activator

>  <Weight>
10.3mg

$$$$
Lab-1.sdf
  ChemDraw05232018482D

 17 18  0  0  0  0  0  0  0  0999 V2000
   -3.2249    0.0000    0.0000 C   0  0  0  0  0  0  0  0  0  0  0  0
   -2.4180    0.0000    0.0000 O   0  0  0  0  0  0  0  0  0  0  0  0
   -2.1630    0.0000    0.0000 C   0  0  0  0  0  0  0  0  0  0  0  0
   -1.3561    0.0000    0.0000 C   0  0  0  0  0  0  0  0  0  0  0  0
   -1.1011    0.0000    0.0000 C   0  0  0  0  0  0  0  0  0  0  0  0
   -1.6531    0.0000    0.0000 C   0  0  0  0  0  0  0  0  0  0  0  0
   -1.2406    0.0000    0.0000 N   0  0  0  0  0  0  0  0  0  0  0  0
   -0.4337    0.0000    0.0000 C   0  0  0  0  0  0  0  0  0  0  0  0
   -0.3474    0.0000    0.0000 C   0  0  0  0  0  0  0  0  0  0  0  0
    0.3670    0.0000    0.0000 C   0  0  0  0  0  0  0  0  0  0  0  0
    1.0815    0.0000    0.0000 C   0  0  0  0  0  0  0  0  0  0  0  0
    1.7960    0.0000    0.0000 N   0  0  0  0  0  0  0  0  0  0  0  0
    2.5104    0.0000    0.0000 C   0  0  0  0  0  0  0  0  0  0  0  0
    3.2249    0.0000    0.0000 C   0  0  0  0  0  0  0  0  0  0  0  0
    2.5104    0.0000    0.0000 O   0  0  0  0  0  0  0  0  0  0  0  0
   -2.4601    0.0000    0.0000 C   0  0  0  0  0  0  0  0  0  0  0  0
   -2.7151    0.0000    0.0000 C   0  0  0  0  0  0  0  0  0  0  0  0
  1  2  1  0      
  2  3  1  0      
  3  4  2  0      
  4  5  1  0      
  5  6  2  0      
  6  7  1  0      
  7  8  1  0      
  8  9  2  0      
  5  9  1  0      
  9 10  1  0      
 10 11  1  0      
 11 12  1  0      
 12 13  1  0      
 13 14  1  0      
 13 15  2  0      
  6 16  1  0      
 16 17  2  0      
  3 17  1  0      
M  END
>  <Bioactivity>
Melatonin is a MT receptor agonist, used as a dietary supplement.

>  <CAS>
73-31-4

>  <Col>
10

>  <Formula>
C13H16N2O2

>  <ID>
T1659

>  <Index>
459

>  <MOLENAME>
Melatonine

>  <MolWt>
232.28

>  <Pathways>
Endocrinology/ Hormones

>  <Plate>
PLATE 006

>  <QR code>
1151480260

>  <Receptor>
melatonin receptor; MPO; ER; ROR-beta; Calmodulin

>  <Reference>
1. Reiter RJ, et al. J Biomed Sci, 2000, 7(6), 444-458.

>  <Row>
F

>  <SMILES>
COC1=CC2=C(NC=C2CCNC(C)=O)C=C1

>  <Target>
Melatonin receptor agonist; MPO inhibitor; Estrogen Receptor antagonist; ROR agonist; Calmodulin

>  <Weight>
10.2mg

$$$$
Lab-1.sdf
  ChemDraw05232018482D

 35 39  0  0  0  0  0  0  0  0999 V2000
   -4.2867    0.0000    0.0000 C   0  0  0  0  0  0  0  0  0  0  0  0
   -3.5722    0.0000    0.0000 O   0  0  0  0  0  0  0  0  0  0  0  0
   -3.5722    0.0000    0.0000 C   0  0  0  0  0  0  0  0  0  0  0  0
   -4.2867    0.0000    0.0000 C   0  0  0  0  0  0  0  0  0  0  0  0
   -5.0012    0.0000    0.0000 O   0  0  0  0  0  0  0  0  0  0  0  0
   -4.2867    0.0000    0.0000 C   0  0  0  0  0  0  0  0  0  0  0  0
   -3.5722    0.0000    0.0000 C   0  0  0  0  0  0  0  0  0  0  0  0
   -2.8578    0.0000    0.0000 C   0  0  0  0  0  0  0  0  0  0  0  0
   -2.8578    0.0000    0.0000 C   0  0  0  0  0  0  0  0  0  0  0  0
   -2.1433    0.0000    0.0000 C   0  0  0  0  0  0  0  0  0  0  0  0
   -1.4289    0.0000    0.0000 O   0  0  0  0  0  0  0  0  0  0  0  0
   -0.7144    0.0000    0.0000 C   0  0  0  0  0  0  0  0  0  0  0  0
   -0.7144    0.0000    0.0000 C   0  0  0  0  0  0  0  0  0  0  0  0
   -1.4289    0.0000    0.0000 O   0  0  0  0  0  0  0  0  0  0  0  0
   -2.1433    0.0000    0.0000 C   0  0  0  0  0  0  0  0  0  0  0  0
   -2.8578    0.0000    0.0000 C   0  0  0  0  0  0  0  0  0  0  0  0
   -3.5722    0.0000    0.0000 O   0  0  0  0  0  0  0  0  0  0  0  0
   -0.0000    0.0000    0.0000 C   0  0  0  0  0  0  0  0  0  0  0  0
    0.7145    0.0000    0.0000 C   0  0  0  0  0  0  0  0  0  0  0  0
    0.7145    0.0000    0.0000 C   0  0  0  0  0  0  0  0  0  0  0  0
   -0.0000    0.0000    0.0000 C   0  0  0  0  0  0  0  0  0  0  0  0
    1.4290    0.0000    0.0000 C   0  0  0  0  0  0  0  0  0  0  0  0
    2.1433    0.0000    0.0000 O   0  0  0  0  0  0  0  0  0  0  0  0
    2.8578    0.0000    0.0000 C   0  0  0  0  0  0  0  0  0  0  0  0
    3.5723    0.0000    0.0000 C   0  0  0  0  0  0  0  0  0  0  0  0
    4.2868    0.0000    0.0000 C   0  0  0  0  0  0  0  0  0  0  0  0
    5.0012    0.0000    0.0000 O   0  0  0  0  0  0  0  0  0  0  0  0
    4.2868    0.0000    0.0000 C   0  0  0  0  0  0  0  0  0  0  0  0
    3.5723    0.0000    0.0000 C   0  0  0  0  0  0  0  0  0  0  0  0
    3.5723    0.0000    0.0000 O   0  0  0  0  0  0  0  0  0  0  0  0
    2.8578    0.0000    0.0000 C   0  0  0  0  0  0  0  0  0  0  0  0
    2.1433    0.0000    0.0000 C   0  0  0  0  0  0  0  0  0  0  0  0
    2.1433    0.0000    0.0000 O   0  0  0  0  0  0  0  0  0  0  0  0
    1.4290    0.0000    0.0000 C   0  0  0  0  0  0  0  0  0  0  0  0
    0.7145    0.0000    0.0000 O   0  0  0  0  0  0  0  0  0  0  0  0
  1  2  1  0      
  2  3  1  0      
  3  4  2  0      
  4  5  1  0      
  4  6  1  0      
  6  7  2  0      
  7  8  1  0      
  8  9  2  0      
  3  9  1  0      
  8 10  1  0      
 10 11  1  0      
 11 12  1  0      
 12 13  2  0      
 13 14  1  0      
 14 15  1  0      
 10 15  1  0      
 15 16  1  0      
 16 17  1  0      
 13 18  1  0      
 18 19  2  0      
 19 20  1  0      
 20 21  2  0      
 12 21  1  0      
 20 22  1  0      
 22 23  1  0      
 23 24  1  0      
 24 25  2  0      
 25 26  1  0      
 26 27  1  0      
 26 28  2  0      
 28 29  1  0      
 29 30  1  0      
 29 31  2  0      
 24 31  1  0      
 31 32  1  0      
 32 33  2  0      
 32 34  1  0      
 22 34  1  0      
 34 35  1  0      
M  END
>  <Bioactivity>
Silibinin, the main flavonoid extracted from the milk thistle Silybum marianum, displays hepatoprotective properties in acute and chronic liver injury.

>  <CAS>
22888-70-6

>  <Col>
11

>  <Formula>
C25H22O10

>  <ID>
T1660

>  <Index>
460

>  <MOLENAME>
Silibinin

>  <MolWt>
482.44

>  <Pathways>
Others

>  <Plate>
PLATE 006

>  <QR code>
1151480261

>  <Receptor>
Others

>  <Reference>
1. Al-Anati L, et al. Mol Nutr Food Res, 2009, 53(4), 460-466.

>  <Row>
F

>  <SMILES>
COC1=C(O)C=CC(=C1)C1OC2=C(OC1CO)C=CC(=C2)C1OC2=CC(O)=CC(O)=C2C(=O)C1O

>  <Target>
Others

>  <Weight>
10.3mg

$$$$
Lab-1.sdf
  ChemDraw05232018482D

 22 25  0  0  0  0  0  0  0  0999 V2000
    3.1034    0.0000    0.0000 O   0  0  0  0  0  0  0  0  0  0  0  0
    2.3329    0.0000    0.0000 C   0  0  0  0  0  0  0  0  0  0  0  0
    2.2029    0.0000    0.0000 C   0  0  0  0  0  0  0  0  0  0  0  0
    2.8435    0.0000    0.0000 O   0  0  0  0  0  0  0  0  0  0  0  0
    1.4324    0.0000    0.0000 C   0  0  0  0  0  0  0  0  0  0  0  0
    0.7918    0.0000    0.0000 C   0  0  0  0  0  0  0  0  0  0  0  0
    0.9218    0.0000    0.0000 C   0  0  0  0  0  0  0  0  0  0  0  0
    1.6923    0.0000    0.0000 C   0  0  0  0  0  0  0  0  0  0  0  0
    0.0213    0.0000    0.0000 C   0  0  0  0  0  0  0  0  0  0  0  0
   -0.7134    0.0000    0.0000 C   0  0  0  0  0  0  0  0  0  0  0  0
   -0.9261    0.0000    0.0000 C   0  0  0  0  0  0  0  0  0  0  0  0
   -1.7227    0.0000    0.0000 C   0  0  0  0  0  0  0  0  0  0  0  0
   -1.9354    0.0000    0.0000 O   0  0  0  0  0  0  0  0  0  0  0  0
   -2.3067    0.0000    0.0000 C   0  0  0  0  0  0  0  0  0  0  0  0
   -3.1034    0.0000    0.0000 O   0  0  0  0  0  0  0  0  0  0  0  0
   -2.0940    0.0000    0.0000 C   0  0  0  0  0  0  0  0  0  0  0  0
   -1.2973    0.0000    0.0000 C   0  0  0  0  0  0  0  0  0  0  0  0
   -0.9236    0.0000    0.0000 C   0  0  0  0  0  0  0  0  0  0  0  0
   -0.1086    0.0000    0.0000 C   0  0  0  0  0  0  0  0  0  0  0  0
   -0.3230    0.0000    0.0000 O   0  0  0  0  0  0  0  0  0  0  0  0
    0.5320    0.0000    0.0000 C   0  0  0  0  0  0  0  0  0  0  0  0
    1.3025    0.0000    0.0000 O   0  0  0  0  0  0  0  0  0  0  0  0
  1  2  1  0      
  2  3  2  0      
  3  4  1  0      
  3  5  1  0      
  5  6  2  0      
  6  7  1  0      
  7  8  2  0      
  2  8  1  0      
  6  9  1  0      
  9 10  1  0      
 10 11  2  0      
 11 12  1  0      
 12 13  1  0      
 12 14  2  0      
 14 15  1  0      
 14 16  1  0      
 16 17  2  0      
 10 17  1  0      
 17 18  1  0      
 18 19  1  0      
  9 19  1  0      
 19 20  1  0      
 19 21  1  0      
 21 22  1  0      
  5 22  1  0      
M  END
>  <Bioactivity>
Hematoxylin is a natural product.

>  <CAS>
517-28-2

>  <Col>
2

>  <Formula>
C16H14O6

>  <ID>
T1686

>  <Index>
461

>  <MOLENAME>
Hematoxylin

>  <MolWt>
302.28

>  <Pathways>
Others

>  <Plate>
PLATE 006

>  <QR code>
1151480249

>  <Receptor>
Others

>  <Reference>
1. Papa FR, et al.  Science. 2003 Nov 28;302(5650):1533-7.

>  <Row>
G

>  <SMILES>
OC1=C(O)C2=C(C=C1)C1C3=CC(O)=C(O)C=C3CC1(O)CO2

>  <Target>
Others

>  <Weight>
10.1mg

$$$$
Lab-1.sdf
  ChemDraw05232018482D

 21 20  0  0  0  0  0  0  0  0999 V2000
   -0.3622    0.0000    0.0000 C   0  0  0  0  0  0  0  0  0  0  0  0
   -0.7747    0.0000    0.0000 C   0  0  0  0  0  0  0  0  0  0  0  0
   -0.3622    0.0000    0.0000 O   0  5  0  0  0  0  0  0  0  0  0  0
   -1.5996    0.0000    0.0000 O   0  0  0  0  0  0  0  0  0  0  0  0
    2.6432    0.0000    0.0000 C   0  0  0  0  0  0  0  0  0  0  0  0
    2.2307    0.0000    0.0000 C   0  0  0  0  0  0  0  0  0  0  0  0
    2.6432    0.0000    0.0000 O   0  5  0  0  0  0  0  0  0  0  0  0
    1.4057    0.0000    0.0000 O   0  0  0  0  0  0  0  0  0  0  0  0
   -2.6432    0.0000    0.0000 C   0  0  0  0  0  0  0  0  0  0  0  0
   -1.9287    0.0000    0.0000 C   0  0  0  0  0  0  0  0  0  0  0  0
   -1.2144    0.0000    0.0000 C   0  0  0  0  0  0  0  0  0  0  0  0
   -1.2144    0.0000    0.0000 O   0  0  0  0  0  0  0  0  0  0  0  0
   -0.4999    0.0000    0.0000 C   0  0  0  0  0  0  0  0  0  0  0  0
    0.2146    0.0000    0.0000 C   0  0  0  0  0  0  0  0  0  0  0  0
    0.9290    0.0000    0.0000 C   0  0  0  0  0  0  0  0  0  0  0  0
    0.9290    0.0000    0.0000 C   0  0  0  0  0  0  0  0  0  0  0  0
    0.2146    0.0000    0.0000 C   0  0  0  0  0  0  0  0  0  0  0  0
   -0.4999    0.0000    0.0000 C   0  0  0  0  0  0  0  0  0  0  0  0
   -1.2144    0.0000    0.0000 C   0  0  0  0  0  0  0  0  0  0  0  0
   -1.2144    0.0000    0.0000 O   0  0  0  0  0  0  0  0  0  0  0  0
   -1.9287    0.0000    0.0000 C   0  0  0  0  0  0  0  0  0  0  0  0
  1  2  1  0      
  2  3  1  0      
  2  4  2  0      
  5  6  1  0      
  6  7  1  0      
  6  8  2  0      
  9 10  1  0      
 10 11  2  0      
 11 12  1  0      
 11 13  1  0      
 13 14  2  0      
 14 15  1  0      
 15 16  2  0      
 16 17  1  0      
 17 18  2  0      
 13 18  1  0      
 18 19  1  0      
 19 20  1  0      
 19 21  2  0      
 10 21  1  0      
M  CHG  2   3  -1   7  -1
M  END
>  <Bioactivity>
Menadiol Diacetate is a vitamin medicine for the treatment of blood coagulation disorders that caused by the lack of VK4 

>  <CAS>
573-20-6

>  <Col>
3

>  <Formula>
C15H14O4

>  <ID>
T2570

>  <Index>
462

>  <MOLENAME>
Menadiol Diacetate

>  <MolWt>
258.27

>  <Pathways>
Vitamin

>  <Plate>
PLATE 006

>  <QR code>
1151480248

>  <Receptor>
VK4

>  <Reference>
1. Gropp J, et al. [Comparison of the biological activity and stability of menadione and menadiol in male chickens]. Z Ernahrungswiss. 1990 Dec;29(4):219-28.

>  <Row>
G

>  <SMILES>
CC([O-])=O.CC([O-])=O.CC1=C(O)C2=CC=CC=C2C(O)=C1

>  <Target>
VK

>  <Weight>
9.9mg

$$$$
Lab-1.sdf
  ChemDraw05232018482D

 48 48  0  0  0  0  0  0  0  0999 V2000
    2.9336    0.0000    0.0000 C   0  0  0  0  0  0  0  0  0  0  0  0
    2.2712    0.0000    0.0000 C   0  0  0  0  0  0  0  0  0  0  0  0
    1.5141    0.0000    0.0000 C   0  0  0  0  0  0  0  0  0  0  0  0
    2.3658    0.0000    0.0000 C   0  0  0  0  0  0  0  0  0  0  0  0
    1.7034    0.0000    0.0000 N   0  0  0  0  0  0  0  0  0  0  0  0
    0.9463    0.0000    0.0000 C   0  0  0  0  0  0  0  0  0  0  0  0
    0.8517    0.0000    0.0000 O   0  0  0  0  0  0  0  0  0  0  0  0
    0.2838    0.0000    0.0000 C   0  0  0  0  0  0  0  0  0  0  0  0
    0.3785    0.0000    0.0000 C   0  0  0  0  0  0  0  0  0  0  0  0
    1.1356    0.0000    0.0000 C   0  0  0  0  0  0  0  0  0  0  0  0
    1.7980    0.0000    0.0000 O   0  0  0  0  0  0  0  0  0  0  0  0
    1.2302    0.0000    0.0000 O   0  0  0  0  0  0  0  0  0  0  0  0
   -0.4731    0.0000    0.0000 N   0  0  0  0  0  0  0  0  0  0  0  0
   -1.1356    0.0000    0.0000 C   0  0  0  0  0  0  0  0  0  0  0  0
   -1.0409    0.0000    0.0000 O   0  0  0  0  0  0  0  0  0  0  0  0
   -1.8926    0.0000    0.0000 C   0  0  0  0  0  0  0  0  0  0  0  0
   -1.9873    0.0000    0.0000 C   0  0  0  0  0  0  0  0  0  0  0  0
   -2.7443    0.0000    0.0000 C   0  0  0  0  0  0  0  0  0  0  0  0
   -2.8390    0.0000    0.0000 C   0  0  0  0  0  0  0  0  0  0  0  0
   -3.5960    0.0000    0.0000 C   0  0  0  0  0  0  0  0  0  0  0  0
   -3.6907    0.0000    0.0000 N   0  0  0  0  0  0  0  0  0  0  0  0
   -2.5551    0.0000    0.0000 N   0  0  0  0  0  0  0  0  0  0  0  0
   -3.3121    0.0000    0.0000 C   0  0  0  0  0  0  0  0  0  0  0  0
   -3.4068    0.0000    0.0000 O   0  0  0  0  0  0  0  0  0  0  0  0
   -3.9746    0.0000    0.0000 C   0  0  0  0  0  0  0  0  0  0  0  0
   -3.8799    0.0000    0.0000 N   0  0  0  0  0  0  0  0  0  0  0  0
   -4.7317    0.0000    0.0000 C   0  0  0  0  0  0  0  0  0  0  0  0
   -5.3940    0.0000    0.0000 C   0  0  0  0  0  0  0  0  0  0  0  0
   -6.1511    0.0000    0.0000 C   0  0  0  0  0  0  0  0  0  0  0  0
   -6.8135    0.0000    0.0000 N   0  0  0  0  0  0  0  0  0  0  0  0
   -7.5706    0.0000    0.0000 C   0  0  0  0  0  0  0  0  0  0  0  0
   -8.2330    0.0000    0.0000 N   0  0  0  0  0  0  0  0  0  0  0  0
   -7.6652    0.0000    0.0000 N   0  0  0  0  0  0  0  0  0  0  0  0
    3.1229    0.0000    0.0000 C   0  0  0  0  0  0  0  0  0  0  0  0
    3.2175    0.0000    0.0000 O   0  0  0  0  0  0  0  0  0  0  0  0
    3.7853    0.0000    0.0000 N   0  0  0  0  0  0  0  0  0  0  0  0
    4.5424    0.0000    0.0000 C   0  0  0  0  0  0  0  0  0  0  0  0
    5.2047    0.0000    0.0000 C   0  0  0  0  0  0  0  0  0  0  0  0
    5.9618    0.0000    0.0000 C   0  0  0  0  0  0  0  0  0  0  0  0
    6.6242    0.0000    0.0000 C   0  0  0  0  0  0  0  0  0  0  0  0
    7.3813    0.0000    0.0000 C   0  0  0  0  0  0  0  0  0  0  0  0
    7.4759    0.0000    0.0000 C   0  0  0  0  0  0  0  0  0  0  0  0
    8.2330    0.0000    0.0000 O   0  0  0  0  0  0  0  0  0  0  0  0
    6.8135    0.0000    0.0000 C   0  0  0  0  0  0  0  0  0  0  0  0
    6.0564    0.0000    0.0000 C   0  0  0  0  0  0  0  0  0  0  0  0
    4.6370    0.0000    0.0000 C   0  0  0  0  0  0  0  0  0  0  0  0
    5.3940    0.0000    0.0000 O   0  0  0  0  0  0  0  0  0  0  0  0
    3.9746    0.0000    0.0000 O   0  0  0  0  0  0  0  0  0  0  0  0
  1  2  1  0      
  2  3  1  0      
  2  4  1  0      
  4  5  1  0      
  5  6  1  0      
  6  7  2  0      
  6  8  1  0      
  8  9  1  0      
  9 10  1  0      
 10 11  1  0      
 10 12  2  0      
  8 13  1  0      
 13 14  1  0      
 14 15  2  0      
 14 16  1  0      
 16 17  1  0      
 17 18  1  0      
 18 19  1  0      
 19 20  1  0      
 20 21  1  0      
 16 22  1  0      
 22 23  1  0      
 23 24  2  0      
 23 25  1  0      
 25 26  1  0      
 25 27  1  0      
 27 28  1  0      
 28 29  1  0      
 29 30  1  0      
 30 31  2  0      
 31 32  1  0      
 31 33  1  0      
  4 34  1  0      
 34 35  2  0      
 34 36  1  0      
 36 37  1  0      
 37 38  1  0      
 38 39  1  0      
 39 40  2  0      
 40 41  1  0      
 41 42  2  0      
 42 43  1  0      
 42 44  1  0      
 44 45  2  0      
 39 45  1  0      
 37 46  1  0      
 46 47  1  0      
 46 48  2  0      
M  END
>  <Bioactivity>
Synthetic pentapeptide corresponding to the amino acids 32-36 of thymopoietin and exhibiting the full biological activity of the natural hormone. THYMOPENTIN is an immunomodulator which has been studi
ed for possible use in the treatment of rheumatoid arthritis, AIDS, and other primary immunodeficiencies.

>  <CAS>
69558-55-0

>  <Col>
4

>  <Formula>
C30H49N9O9

>  <ID>
T2598

>  <Index>
463

>  <MOLENAME>
Thymopentin

>  <MolWt>
679.56

>  <Pathways>
Endocrinology/ Hormones

>  <Plate>
PLATE 006

>  <QR code>
1151480247

>  <Receptor>
ER

>  <Reference>
1. Zhu MX, et al. Exp Cell Res. 2015 Feb 15;331(2):387-98. 

>  <Row>
G

>  <SMILES>
CC(C)C(NC(=O)C(CC(O)=O)NC(=O)C(CCCCN)NC(=O)C(N)CCCN=C(N)N)C(=O)NC(CC1=CC=C(O)C=C1)C(O)=O

>  <Target>
Estrogen/Progestogen Receptor agonist

>  <Weight>
10.2mg

$$$$
Lab-1.sdf
  ChemDraw05232018482D

 34 37  0  0  0  0  0  0  0  0999 V2000
    0.2971    0.0000    0.0000 C   0  0  0  0  0  0  0  0  0  0  0  0
    0.2971    0.0000    0.0000 C   0  0  0  0  0  0  0  0  0  0  0  0
    1.0116    0.0000    0.0000 C   0  0  0  0  0  0  0  0  0  0  0  0
    1.7261    0.0000    0.0000 C   0  0  0  0  0  0  0  0  0  0  0  0
    2.4404    0.0000    0.0000 C   0  0  0  0  0  0  0  0  0  0  0  0
    2.4404    0.0000    0.0000 O   0  0  0  0  0  0  0  0  0  0  0  0
    3.1549    0.0000    0.0000 N   0  0  0  0  0  0  0  0  0  0  0  0
    3.8694    0.0000    0.0000 C   0  0  0  0  0  0  0  0  0  0  0  0
    4.5838    0.0000    0.0000 C   0  0  0  0  0  0  0  0  0  0  0  0
    5.2983    0.0000    0.0000 S   0  0  0  0  0  0  0  0  0  0  0  0
    6.0127    0.0000    0.0000 O   0  0  0  0  0  0  0  0  0  0  0  0
    5.7107    0.0000    0.0000 O   0  0  0  0  0  0  0  0  0  0  0  0
    4.8858    0.0000    0.0000 O   0  0  0  0  0  0  0  0  0  0  0  0
   -0.4173    0.0000    0.0000 C   0  0  0  0  0  0  0  0  0  0  0  0
   -0.5036    0.0000    0.0000 C   0  0  0  0  0  0  0  0  0  0  0  0
   -1.3106    0.0000    0.0000 C   0  0  0  0  0  0  0  0  0  0  0  0
   -1.7231    0.0000    0.0000 C   0  0  0  0  0  0  0  0  0  0  0  0
   -2.5299    0.0000    0.0000 C   0  0  0  0  0  0  0  0  0  0  0  0
   -3.0820    0.0000    0.0000 C   0  0  0  0  0  0  0  0  0  0  0  0
   -2.8270    0.0000    0.0000 O   0  0  0  0  0  0  0  0  0  0  0  0
   -3.8889    0.0000    0.0000 C   0  0  0  0  0  0  0  0  0  0  0  0
   -4.1439    0.0000    0.0000 C   0  0  0  0  0  0  0  0  0  0  0  0
   -4.9508    0.0000    0.0000 C   0  0  0  0  0  0  0  0  0  0  0  0
   -5.2058    0.0000    0.0000 C   0  0  0  0  0  0  0  0  0  0  0  0
   -6.0127    0.0000    0.0000 O   0  0  0  0  0  0  0  0  0  0  0  0
   -4.6538    0.0000    0.0000 C   0  0  0  0  0  0  0  0  0  0  0  0
   -3.8468    0.0000    0.0000 C   0  0  0  0  0  0  0  0  0  0  0  0
   -3.5918    0.0000    0.0000 C   0  0  0  0  0  0  0  0  0  0  0  0
   -3.0398    0.0000    0.0000 C   0  0  0  0  0  0  0  0  0  0  0  0
   -2.7849    0.0000    0.0000 C   0  0  0  0  0  0  0  0  0  0  0  0
   -2.2328    0.0000    0.0000 C   0  0  0  0  0  0  0  0  0  0  0  0
   -1.4260    0.0000    0.0000 C   0  0  0  0  0  0  0  0  0  0  0  0
   -1.1710    0.0000    0.0000 C   0  0  0  0  0  0  0  0  0  0  0  0
   -0.5579    0.0000    0.0000 C   0  0  0  0  0  0  0  0  0  0  0  0
  1  2  1  0      
  2  3  1  0      
  3  4  1  0      
  4  5  1  0      
  5  6  2  0      
  5  7  1  0      
  7  8  1  0      
  8  9  1  0      
  9 10  1  0      
 10 11  1  0      
 10 12  2  0      
 10 13  2  0      
  2 14  1  0      
 14 15  1  0      
 15 16  1  0      
 16 17  1  0      
 17 18  1  0      
 18 19  1  0      
 19 20  1  0      
 19 21  1  0      
 21 22  1  0      
 22 23  1  0      
 23 24  1  0      
 24 25  1  0      
 24 26  1  0      
 26 27  1  0      
 27 28  1  0      
 22 28  1  0      
 28 29  1  0      
 28 30  1  0      
 18 30  1  0      
 30 31  1  0      
 31 32  1  0      
 32 33  1  0      
 14 33  1  0      
 17 33  1  0      
 33 34  1  0      
M  END
>  <Bioactivity>
Tauroursodeoxycholic acid is the more hydrophilic form of ursodeoxycholic acid, which is the more abundant naturally produced bile acid in humans. Tauroursodeoxycholic acid, on the other hand, is prod
uced abundantly in bears and has been used for centuries as a natural remedy in some Asian countries. Tauroursodeoxycholic acid is being investigated for use in several conditions such as Primary Bili
ary Cirrhosis (PBC), insulin resistance, amyloidosis, Cystic Fibrosis, Cholestasis, and Amyotrophic Lateral Sclerosis. The only completed clinical trial thus far is a phase III clinical trial comparin
g tauroursodeoxycholic acid and ursofalk in PBC adult patients, but as of June 2013 no results of this trial have been published.

>  <CAS>
14605-22-2

>  <Col>
5

>  <Formula>
C26H45NO6S

>  <ID>
T2532

>  <Index>
464

>  <MOLENAME>
Tauroursodeoxycholic Acid

>  <MolWt>
499.7

>  <Pathways>
Metabolism

>  <Plate>
PLATE 006

>  <QR code>
1151480246

>  <Receptor>
CYP3A

>  <Reference>
1. Paolini M, et al. Hepatology. 1999 Sep;30(3):730-9. 

>  <Row>
G

>  <SMILES>
CC(CCC(=O)NCCS(O)(=O)=O)C1CCC2C3C(O)CC4CC(O)CCC4(C)C3CCC12C

>  <Target>
CYP inhibitor

>  <Weight>
10.1mg

$$$$
Lab-1.sdf
  ChemDraw05232018482D

 22 24  0  0  0  0  0  0  0  0999 V2000
   -1.0717    0.0000    0.0000 O   0  0  0  0  0  0  0  0  0  0  0  0
   -0.3572    0.0000    0.0000 C   0  0  0  0  0  0  0  0  0  0  0  0
   -0.3572    0.0000    0.0000 C   0  0  0  0  0  0  0  0  0  0  0  0
    0.3572    0.0000    0.0000 O   0  0  0  0  0  0  0  0  0  0  0  0
    1.0717    0.0000    0.0000 C   0  0  0  0  0  0  0  0  0  0  0  0
    1.7861    0.0000    0.0000 C   0  0  0  0  0  0  0  0  0  0  0  0
    2.5006    0.0000    0.0000 C   0  0  0  0  0  0  0  0  0  0  0  0
    3.2150    0.0000    0.0000 O   0  0  0  0  0  0  0  0  0  0  0  0
    2.5006    0.0000    0.0000 C   0  0  0  0  0  0  0  0  0  0  0  0
    1.7861    0.0000    0.0000 C   0  0  0  0  0  0  0  0  0  0  0  0
    1.7861    0.0000    0.0000 O   0  0  0  0  0  0  0  0  0  0  0  0
    1.0717    0.0000    0.0000 C   0  0  0  0  0  0  0  0  0  0  0  0
    0.3572    0.0000    0.0000 C   0  0  0  0  0  0  0  0  0  0  0  0
    0.3572    0.0000    0.0000 O   0  0  0  0  0  0  0  0  0  0  0  0
   -1.0717    0.0000    0.0000 C   0  0  0  0  0  0  0  0  0  0  0  0
   -1.7861    0.0000    0.0000 C   0  0  0  0  0  0  0  0  0  0  0  0
   -2.5005    0.0000    0.0000 C   0  0  0  0  0  0  0  0  0  0  0  0
   -3.2150    0.0000    0.0000 O   0  0  0  0  0  0  0  0  0  0  0  0
   -2.5005    0.0000    0.0000 C   0  0  0  0  0  0  0  0  0  0  0  0
   -3.2150    0.0000    0.0000 O   0  0  0  0  0  0  0  0  0  0  0  0
   -1.7861    0.0000    0.0000 C   0  0  0  0  0  0  0  0  0  0  0  0
   -1.0717    0.0000    0.0000 C   0  0  0  0  0  0  0  0  0  0  0  0
  1  2  1  0      
  2  3  1  0      
  3  4  1  0      
  4  5  1  0      
  5  6  2  0      
  6  7  1  0      
  7  8  1  0      
  7  9  2  0      
  9 10  1  0      
 10 11  1  0      
 10 12  2  0      
  5 12  1  0      
 12 13  1  0      
  2 13  1  0      
 13 14  2  0      
  3 15  1  0      
 15 16  2  0      
 16 17  1  0      
 17 18  1  0      
 17 19  2  0      
 19 20  1  0      
 19 21  1  0      
 21 22  2  0      
 15 22  1  0      
M  END
>  <Bioactivity>
Taxifolin is a flavonoid in many plants such as Taxus chinensis, Siberian larch, Cedrus deodara and so on.

>  <CAS>
480-18-2

>  <Col>
6

>  <Formula>
C15H12O7

>  <ID>
T1738

>  <Index>
465

>  <MOLENAME>
Taxifolin (Dihydroquercetin)

>  <MolWt>
304.25

>  <Pathways>
GPCR/G Protein; Neuroscience; Immunology/Inflammation

>  <Plate>
PLATE 006

>  <QR code>
1151480245

>  <Receptor>
¦Â-adrenergic receptor; Beta-nerve growth factor; TNF

>  <Reference>
1. Makena PS, et al. Environ Mol Mutagen, 2009, 50(6), 451-459.

>  <Row>
G

>  <SMILES>
OC1C(OC2=CC(O)=CC(O)=C2C1=O)C1=CC(O)=C(O)C=C1

>  <Target>
Adrenergic Receptor antagonist; NGF inhibitor; TNF-alpha inhibitor

>  <Weight>
10.3mg

$$$$
Lab-1.sdf
  ChemDraw05232018482D

 25 27  0  0  0  0  0  0  0  0999 V2000
   -3.2151    0.0000    0.0000 C   0  0  0  0  0  0  0  0  0  0  0  0
   -3.2151    0.0000    0.0000 O   0  0  0  0  0  0  0  0  0  0  0  0
   -2.5006    0.0000    0.0000 C   0  0  0  0  0  0  0  0  0  0  0  0
   -2.5006    0.0000    0.0000 C   0  0  0  0  0  0  0  0  0  0  0  0
   -3.2151    0.0000    0.0000 C   0  0  0  0  0  0  0  0  0  0  0  0
   -3.2151    0.0000    0.0000 C   0  0  0  0  0  0  0  0  0  0  0  0
   -2.5006    0.0000    0.0000 C   0  0  0  0  0  0  0  0  0  0  0  0
   -2.5006    0.0000    0.0000 C   0  0  0  0  0  0  0  0  0  0  0  0
   -1.7862    0.0000    0.0000 C   0  0  0  0  0  0  0  0  0  0  0  0
   -1.7862    0.0000    0.0000 C   0  0  0  0  0  0  0  0  0  0  0  0
   -1.0717    0.0000    0.0000 C   0  0  0  0  0  0  0  0  0  0  0  0
   -0.3572    0.0000    0.0000 C   0  0  0  0  0  0  0  0  0  0  0  0
   -0.3572    0.0000    0.0000 O   0  0  0  0  0  0  0  0  0  0  0  0
    0.3573    0.0000    0.0000 C   0  0  0  0  0  0  0  0  0  0  0  0
    0.3573    0.0000    0.0000 C   0  0  0  0  0  0  0  0  0  0  0  0
   -0.3572    0.0000    0.0000 O   0  0  0  0  0  0  0  0  0  0  0  0
   -1.0717    0.0000    0.0000 C   0  0  0  0  0  0  0  0  0  0  0  0
   -1.7862    0.0000    0.0000 C   0  0  0  0  0  0  0  0  0  0  0  0
    1.0717    0.0000    0.0000 C   0  0  0  0  0  0  0  0  0  0  0  0
    1.7862    0.0000    0.0000 C   0  0  0  0  0  0  0  0  0  0  0  0
    2.5007    0.0000    0.0000 C   0  0  0  0  0  0  0  0  0  0  0  0
    2.5007    0.0000    0.0000 C   0  0  0  0  0  0  0  0  0  0  0  0
    3.2151    0.0000    0.0000 O   0  0  0  0  0  0  0  0  0  0  0  0
    1.7862    0.0000    0.0000 C   0  0  0  0  0  0  0  0  0  0  0  0
    1.0717    0.0000    0.0000 C   0  0  0  0  0  0  0  0  0  0  0  0
  1  2  1  0      
  2  3  1  0      
  3  4  2  0      
  4  5  1  0      
  5  6  1  0      
  6  7  2  0      
  7  8  1  0      
  7  9  1  0      
  4 10  1  0      
 10 11  2  0      
 11 12  1  0      
 12 13  2  0      
 12 14  1  0      
 14 15  1  0      
 15 16  1  0      
 16 17  1  0      
 11 17  1  0      
 17 18  2  0      
  3 18  1  0      
 15 19  1  0      
 19 20  2  0      
 20 21  1  0      
 21 22  2  0      
 22 23  1  0      
 22 24  1  0      
 24 25  2  0      
 19 25  1  0      
M  END
>  <Bioactivity>
Bavachinin(7-O-Methylbavachin) is a natural compound isolated from the Chinese herb Fructus Psoraleae;has potent anti-angiogenic activity.

>  <CAS>
19879-30-2

>  <Col>
7

>  <Formula>
C21H22O4

>  <ID>
T3056

>  <Index>
466

>  <MOLENAME>
Bavachinin

>  <MolWt>
338.4

>  <Pathways>
Others

>  <Plate>
PLATE 006

>  <QR code>
1151480244

>  <Receptor>
Others

>  <Reference>
1. Chen X, et al. FEBS Lett. 2013 Sep 17;587(18):2930-5.

>  <Row>
G

>  <SMILES>
COC1=C(CC=C(C)C)C=C2C(=O)CC(OC2=C1)C1=CC=C(O)C=C1

>  <Target>
Others

>  <Weight>
9.9mg

$$$$
Lab-1.sdf
  ChemDraw05232018482D

 21 23  0  0  0  0  0  0  0  0999 V2000
   -3.2151    0.0000    0.0000 O   0  0  0  0  0  0  0  0  0  0  0  0
   -2.5006    0.0000    0.0000 C   0  0  0  0  0  0  0  0  0  0  0  0
   -2.5006    0.0000    0.0000 C   0  0  0  0  0  0  0  0  0  0  0  0
   -1.7862    0.0000    0.0000 C   0  0  0  0  0  0  0  0  0  0  0  0
   -1.0717    0.0000    0.0000 C   0  0  0  0  0  0  0  0  0  0  0  0
   -1.0717    0.0000    0.0000 C   0  0  0  0  0  0  0  0  0  0  0  0
   -1.7862    0.0000    0.0000 C   0  0  0  0  0  0  0  0  0  0  0  0
   -0.3572    0.0000    0.0000 C   0  0  0  0  0  0  0  0  0  0  0  0
   -0.3572    0.0000    0.0000 C   0  0  0  0  0  0  0  0  0  0  0  0
   -1.0717    0.0000    0.0000 O   0  0  0  0  0  0  0  0  0  0  0  0
    0.3572    0.0000    0.0000 C   0  0  0  0  0  0  0  0  0  0  0  0
    0.3572    0.0000    0.0000 O   0  0  0  0  0  0  0  0  0  0  0  0
    1.0717    0.0000    0.0000 C   0  0  0  0  0  0  0  0  0  0  0  0
    1.7862    0.0000    0.0000 C   0  0  0  0  0  0  0  0  0  0  0  0
    1.7862    0.0000    0.0000 O   0  0  0  0  0  0  0  0  0  0  0  0
    2.5007    0.0000    0.0000 C   0  0  0  0  0  0  0  0  0  0  0  0
    2.5007    0.0000    0.0000 C   0  0  0  0  0  0  0  0  0  0  0  0
    3.2151    0.0000    0.0000 O   0  0  0  0  0  0  0  0  0  0  0  0
    1.7862    0.0000    0.0000 C   0  0  0  0  0  0  0  0  0  0  0  0
    1.0717    0.0000    0.0000 C   0  0  0  0  0  0  0  0  0  0  0  0
    0.3572    0.0000    0.0000 O   0  0  0  0  0  0  0  0  0  0  0  0
  1  2  1  0      
  2  3  2  0      
  3  4  1  0      
  4  5  2  0      
  5  6  1  0      
  6  7  2  0      
  2  7  1  0      
  5  8  1  0      
  8  9  2  0      
  9 10  1  0      
  9 11  1  0      
 11 12  2  0      
 11 13  1  0      
 13 14  2  0      
 14 15  1  0      
 14 16  1  0      
 16 17  2  0      
 17 18  1  0      
 17 19  1  0      
 19 20  2  0      
 13 20  1  0      
 20 21  1  0      
  8 21  1  0      
M  END
>  <Bioactivity>
Kaempferol is a natural flavonol, a type of flavonoid, that has been isolated from plant sources

>  <CAS>
520-18-3

>  <Col>
8

>  <Formula>
C15H10O6

>  <ID>
T2177

>  <Index>
467

>  <MOLENAME>
Kaempferol

>  <MolWt>
286.23

>  <Pathways>
Others

>  <Plate>
PLATE 006

>  <QR code>
1151480243

>  <Receptor>
Others

>  <Reference>
1. Lin F, et al. Int Immunopharmacol. 2015 Oct;28(2):859-65. 

>  <Row>
G

>  <SMILES>
OC1=CC=C(C=C1)C1=C(O)C(=O)C2=C(O)C=C(O)C=C2O1

>  <Target>
Others

>  <Weight>
10.4mg

$$$$
Lab-1.sdf
  ChemDraw05232018482D

 33 34  0  0  0  0  0  0  0  0999 V2000
   -3.9296    0.0000    0.0000 C   0  0  0  0  0  0  0  0  0  0  0  0
   -3.9296    0.0000    0.0000 C   0  0  0  0  0  0  0  0  0  0  0  0
   -4.6441    0.0000    0.0000 C   0  0  0  0  0  0  0  0  0  0  0  0
   -3.2151    0.0000    0.0000 C   0  0  0  0  0  0  0  0  0  0  0  0
   -3.2151    0.0000    0.0000 C   0  0  0  0  0  0  0  0  0  0  0  0
   -2.5007    0.0000    0.0000 C   0  0  0  0  0  0  0  0  0  0  0  0
   -2.5007    0.0000    0.0000 C   0  0  0  0  0  0  0  0  0  0  0  0
   -3.2151    0.0000    0.0000 C   0  0  0  0  0  0  0  0  0  0  0  0
   -1.7862    0.0000    0.0000 C   0  0  0  0  0  0  0  0  0  0  0  0
   -1.7862    0.0000    0.0000 C   0  0  0  0  0  0  0  0  0  0  0  0
   -1.0717    0.0000    0.0000 C   0  0  0  0  0  0  0  0  0  0  0  0
   -1.0717    0.0000    0.0000 C   0  0  0  0  0  0  0  0  0  0  0  0
   -1.7862    0.0000    0.0000 C   0  0  0  0  0  0  0  0  0  0  0  0
   -0.3572    0.0000    0.0000 C   0  0  0  0  0  0  0  0  0  0  0  0
   -0.3572    0.0000    0.0000 C   0  0  0  0  0  0  0  0  0  0  0  0
    0.3572    0.0000    0.0000 C   0  0  0  0  0  0  0  0  0  0  0  0
    0.3572    0.0000    0.0000 C   0  0  0  0  0  0  0  0  0  0  0  0
   -0.3572    0.0000    0.0000 C   0  0  0  0  0  0  0  0  0  0  0  0
    1.0717    0.0000    0.0000 C   0  0  0  0  0  0  0  0  0  0  0  0
    1.0717    0.0000    0.0000 C   0  0  0  0  0  0  0  0  0  0  0  0
    1.7862    0.0000    0.0000 C   0  0  0  0  0  0  0  0  0  0  0  0
    1.7862    0.0000    0.0000 C   0  0  0  0  0  0  0  0  0  0  0  0
    1.0717    0.0000    0.0000 C   0  0  0  0  0  0  0  0  0  0  0  0
    2.5006    0.0000    0.0000 C   0  0  0  0  0  0  0  0  0  0  0  0
    2.5006    0.0000    0.0000 O   0  0  0  0  0  0  0  0  0  0  0  0
    3.2151    0.0000    0.0000 C   0  0  0  0  0  0  0  0  0  0  0  0
    3.9296    0.0000    0.0000 C   0  0  0  0  0  0  0  0  0  0  0  0
    4.6441    0.0000    0.0000 C   0  0  0  0  0  0  0  0  0  0  0  0
    4.6441    0.0000    0.0000 C   0  0  0  0  0  0  0  0  0  0  0  0
    3.9296    0.0000    0.0000 C   0  0  0  0  0  0  0  0  0  0  0  0
    3.2151    0.0000    0.0000 C   0  0  0  0  0  0  0  0  0  0  0  0
    2.5006    0.0000    0.0000 C   0  0  0  0  0  0  0  0  0  0  0  0
    2.5006    0.0000    0.0000 O   0  0  0  0  0  0  0  0  0  0  0  0
  1  2  1  0      
  2  3  1  0      
  2  4  2  0      
  4  5  1  0      
  5  6  1  0      
  6  7  1  0      
  7  8  1  0      
  7  9  2  0      
  9 10  1  4      
 10 11  1  0      
 11 12  1  0      
 12 13  1  0      
 12 14  2  0      
 14 15  1  4      
 15 16  1  0      
 16 17  1  0      
 17 18  1  0      
 17 19  2  0      
 19 20  1  4      
 20 21  1  0      
 21 22  2  0      
 22 23  1  0      
 22 24  1  0      
 24 25  2  0      
 24 26  1  0      
 26 27  2  0      
 27 28  1  0      
 28 29  2  0      
 29 30  1  0      
 30 31  2  0      
 26 31  1  0      
 31 32  1  0      
 21 32  1  0      
 32 33  2  0      
M  END
>  <Bioactivity>
Menatetrenone is a menaquinone compound and form of vitamin K2 with potential antineoplastic activity. Menatetrenone may act by modulating the signalling of certain tyrosine kinases, thereby affecting
 several transcription factors including c-myc and c-fos. This agent inhibits tumor cell growth by inducing apoptosis and cell cycle arrest.

>  <CAS>
11032-49-8

>  <Col>
9

>  <Formula>
C31H40O2

>  <ID>
T2336

>  <Index>
468

>  <MOLENAME>
Menatetrenone

>  <MolWt>
444.65

>  <Pathways>
Vitamin

>  <Plate>
PLATE 006

>  <QR code>
1151480242

>  <Receptor>
vitamin k2 analog

>  <Reference>
1. Ishizuka M, et al. AntiY Res. 2012 Dec;32(12):5415-20.

>  <Row>
G

>  <SMILES>
CC(C)=CCCC(C)=CCCC(C)=CCCC(C)=CCC1=C(C)C(=O)C2=CC=CC=C2C1=O

>  <Target>
VK

>  <Weight>
10.3mg

$$$$
Lab-1.sdf
  ChemDraw05232018482D

 45 51  0  0  0  0  0  0  0  0999 V2000
    2.7347    0.0000    0.0000 C   0  0  0  0  0  0  0  0  0  0  0  0
    2.7683    0.0000    0.0000 N   0  0  0  0  0  0  0  0  0  0  0  0
    3.4857    0.0000    0.0000 C   0  0  0  0  0  0  0  0  0  0  0  0
    3.5204    0.0000    0.0000 C   0  0  0  0  0  0  0  0  0  0  0  0
    2.8304    0.0000    0.0000 C   0  0  0  0  0  0  0  0  0  0  0  0
    2.8655    0.0000    0.0000 C   0  0  0  0  0  0  0  0  0  0  0  0
    2.1806    0.0000    0.0000 C   0  0  0  0  0  0  0  0  0  0  0  0
    1.4277    0.0000    0.0000 C   0  0  0  0  0  0  0  0  0  0  0  0
    1.4075    0.0000    0.0000 C   0  0  0  0  0  0  0  0  0  0  0  0
    2.0936    0.0000    0.0000 C   0  0  0  0  0  0  0  0  0  0  0  0
    2.0674    0.0000    0.0000 C   0  0  0  0  0  0  0  0  0  0  0  0
    1.5453    0.0000    0.0000 C   0  0  0  0  0  0  0  0  0  0  0  0
    0.8420    0.0000    0.0000 C   0  0  0  0  0  0  0  0  0  0  0  0
    0.4318    0.0000    0.0000 C   0  0  0  0  0  0  0  0  0  0  0  0
   -0.3812    0.0000    0.0000 C   0  0  0  0  0  0  0  0  0  0  0  0
   -0.8026    0.0000    0.0000 C   0  0  0  0  0  0  0  0  0  0  0  0
   -0.3983    0.0000    0.0000 C   0  0  0  0  0  0  0  0  0  0  0  0
    0.4070    0.0000    0.0000 C   0  0  0  0  0  0  0  0  0  0  0  0
   -1.5826    0.0000    0.0000 O   0  0  0  0  0  0  0  0  0  0  0  0
   -2.2122    0.0000    0.0000 C   0  0  0  0  0  0  0  0  0  0  0  0
   -3.0371    0.0000    0.0000 C   0  0  0  0  0  0  0  0  0  0  0  0
   -3.5204    0.0000    0.0000 C   0  0  0  0  0  0  0  0  0  0  0  0
   -3.2000    0.0000    0.0000 C   0  0  0  0  0  0  0  0  0  0  0  0
   -2.3683    0.0000    0.0000 C   0  0  0  0  0  0  0  0  0  0  0  0
   -1.9056    0.0000    0.0000 C   0  0  0  0  0  0  0  0  0  0  0  0
   -1.8932    0.0000    0.0000 C   0  0  0  0  0  0  0  0  0  0  0  0
   -1.5535    0.0000    0.0000 C   0  0  0  0  0  0  0  0  0  0  0  0
   -0.8967    0.0000    0.0000 C   0  0  0  0  0  0  0  0  0  0  0  0
   -0.0498    0.0000    0.0000 C   0  0  0  0  0  0  0  0  0  0  0  0
    0.6451    0.0000    0.0000 O   0  0  0  0  0  0  0  0  0  0  0  0
    0.5008    0.0000    0.0000 C   0  0  0  0  0  0  0  0  0  0  0  0
    0.2916    0.0000    0.0000 C   0  0  0  0  0  0  0  0  0  0  0  0
   -0.5053    0.0000    0.0000 C   0  0  0  0  0  0  0  0  0  0  0  0
   -1.0829    0.0000    0.0000 C   0  0  0  0  0  0  0  0  0  0  0  0
   -1.8605    0.0000    0.0000 C   0  0  0  0  0  0  0  0  0  0  0  0
   -2.4811    0.0000    0.0000 C   0  0  0  0  0  0  0  0  0  0  0  0
   -2.3161    0.0000    0.0000 N   0  0  0  0  0  0  0  0  0  0  0  0
   -2.9376    0.0000    0.0000 C   0  0  0  0  0  0  0  0  0  0  0  0
    0.8615    0.0000    0.0000 O   0  0  0  0  0  0  0  0  0  0  0  0
    0.6476    0.0000    0.0000 C   0  0  0  0  0  0  0  0  0  0  0  0
    1.2883    0.0000    0.0000 O   0  0  0  0  0  0  0  0  0  0  0  0
    1.8474    0.0000    0.0000 C   0  0  0  0  0  0  0  0  0  0  0  0
   -3.3679    0.0000    0.0000 O   0  0  0  0  0  0  0  0  0  0  0  0
    2.2394    0.0000    0.0000 O   0  0  0  0  0  0  0  0  0  0  0  0
    2.9688    0.0000    0.0000 C   0  0  0  0  0  0  0  0  0  0  0  0
  1  2  1  0      
  2  3  1  0      
  3  4  1  0      
  4  5  1  0      
  5  6  2  0      
  6  7  1  0      
  7  8  2  0      
  8  9  1  0      
  9 10  2  0      
  5 10  1  0      
 10 11  1  0      
  2 11  1  0      
 11 12  1  0      
 12 13  1  0      
 13 14  2  0      
 14 15  1  0      
 15 16  2  0      
 16 17  1  0      
 17 18  2  0      
 13 18  1  0      
 16 19  1  0      
 19 20  1  0      
 20 21  2  0      
 21 22  1  0      
 22 23  2  0      
 23 24  1  0      
 24 25  2  0      
 20 25  1  0      
 24 26  1  0      
 26 27  1  0      
 27 28  1  0      
 28 29  2  0      
 29 30  1  0      
  8 30  1  0      
 29 31  1  0      
 31 32  2  0      
 32 33  1  0      
 33 34  2  0      
 28 34  1  0      
 34 35  1  0      
 35 36  1  0      
 36 37  1  0      
 27 37  1  0      
 37 38  1  0      
 32 39  1  0      
 39 40  1  0      
 31 41  1  0      
 41 42  1  0      
 21 43  1  0      
  7 44  1  0      
 44 45  1  0      
M  END
>  <Bioactivity>
Berbamine dihydrochloride, a natural compound derived from the Berberis amurensis plant, has been shown to exhibit antitumor activity in several Ys. 

>  <CAS>
6078-17-7

>  <Col>
10

>  <Formula>
C37H42Cl2N2O6

>  <ID>
T2920

>  <Index>
469

>  <MOLENAME>
Berbamine dihydrochloride 

>  <MolWt>
680.24

>  <Pathways>
Others

>  <Plate>
PLATE 006

>  <QR code>
1151480241

>  <Receptor>
Others

>  <Reference>
1. Jin X, Wu Y. Anat Rec (Hoboken). 2014 May;297(5):802-9.

>  <Row>
G

>  <SMILES>
CN1CCC2=CC(=C3C=C2C1CC4=CC=C(C=C4)OC5=C(C=CC(=C5)CC6C7=C(O3)C(=C(C=C7CCN6C)OC)OC)O)OC

>  <Target>
Others

>  <Weight>
10.2mg

$$$$
Lab-1.sdf
  ChemDraw05232018482D

 55 62  0  0  0  0  0  0  0  0999 V2000
    2.5639    0.0000    0.0000 C   0  0  0  0  0  0  0  0  0  0  0  0
    3.0957    0.0000    0.0000 C   0  0  0  0  0  0  0  0  0  0  0  0
    2.4650    0.0000    0.0000 C   0  0  0  0  0  0  0  0  0  0  0  0
    3.7264    0.0000    0.0000 O   0  0  0  0  0  0  0  0  0  0  0  0
    3.6275    0.0000    0.0000 C   0  0  0  0  0  0  0  0  0  0  0  0
    4.4504    0.0000    0.0000 C   0  0  0  0  0  0  0  0  0  0  0  0
    4.7612    0.0000    0.0000 C   0  0  0  0  0  0  0  0  0  0  0  0
    4.1305    0.0000    0.0000 C   0  0  0  0  0  0  0  0  0  0  0  0
    4.7254    0.0000    0.0000 C   0  0  0  0  0  0  0  0  0  0  0  0
    3.4298    0.0000    0.0000 O   0  0  0  0  0  0  0  0  0  0  0  0
    3.6242    0.0000    0.0000 C   0  0  0  0  0  0  0  0  0  0  0  0
    3.8535    0.0000    0.0000 C   0  0  0  0  0  0  0  0  0  0  0  0
    4.6294    0.0000    0.0000 O   0  0  0  0  0  0  0  0  0  0  0  0
    3.1706    0.0000    0.0000 C   0  0  0  0  0  0  0  0  0  0  0  0
    2.5193    0.0000    0.0000 C   0  0  0  0  0  0  0  0  0  0  0  0
    2.3217    0.0000    0.0000 C   0  0  0  0  0  0  0  0  0  0  0  0
    1.7071    0.0000    0.0000 C   0  0  0  0  0  0  0  0  0  0  0  0
    1.4268    0.0000    0.0000 C   0  0  0  0  0  0  0  0  0  0  0  0
    0.6147    0.0000    0.0000 C   0  0  0  0  0  0  0  0  0  0  0  0
    0.3344    0.0000    0.0000 O   0  0  0  0  0  0  0  0  0  0  0  0
    0.8662    0.0000    0.0000 C   0  0  0  0  0  0  0  0  0  0  0  0
    1.6783    0.0000    0.0000 O   0  0  0  0  0  0  0  0  0  0  0  0
    2.2102    0.0000    0.0000 C   0  0  0  0  0  0  0  0  0  0  0  0
    3.0224    0.0000    0.0000 C   0  0  0  0  0  0  0  0  0  0  0  0
    3.5542    0.0000    0.0000 O   0  0  0  0  0  0  0  0  0  0  0  0
    1.9298    0.0000    0.0000 C   0  0  0  0  0  0  0  0  0  0  0  0
    2.4618    0.0000    0.0000 O   0  0  0  0  0  0  0  0  0  0  0  0
    1.1177    0.0000    0.0000 C   0  0  0  0  0  0  0  0  0  0  0  0
    0.8374    0.0000    0.0000 O   0  0  0  0  0  0  0  0  0  0  0  0
    0.5859    0.0000    0.0000 C   0  0  0  0  0  0  0  0  0  0  0  0
   -0.2262    0.0000    0.0000 O   0  0  0  0  0  0  0  0  0  0  0  0
    0.0829    0.0000    0.0000 C   0  0  0  0  0  0  0  0  0  0  0  0
    0.3632    0.0000    0.0000 C   0  0  0  0  0  0  0  0  0  0  0  0
    0.6435    0.0000    0.0000 C   0  0  0  0  0  0  0  0  0  0  0  0
    1.1753    0.0000    0.0000 C   0  0  0  0  0  0  0  0  0  0  0  0
    1.4556    0.0000    0.0000 C   0  0  0  0  0  0  0  0  0  0  0  0
    2.2678    0.0000    0.0000 C   0  0  0  0  0  0  0  0  0  0  0  0
    2.7996    0.0000    0.0000 C   0  0  0  0  0  0  0  0  0  0  0  0
    3.1595    0.0000    0.0000 C   0  0  0  0  0  0  0  0  0  0  0  0
   -0.1687    0.0000    0.0000 C   0  0  0  0  0  0  0  0  0  0  0  0
   -0.9808    0.0000    0.0000 C   0  0  0  0  0  0  0  0  0  0  0  0
   -1.2611    0.0000    0.0000 C   0  0  0  0  0  0  0  0  0  0  0  0
   -2.0732    0.0000    0.0000 O   0  0  0  0  0  0  0  0  0  0  0  0
   -2.6051    0.0000    0.0000 C   0  0  0  0  0  0  0  0  0  0  0  0
   -2.3248    0.0000    0.0000 O   0  0  0  0  0  0  0  0  0  0  0  0
   -2.8566    0.0000    0.0000 C   0  0  0  0  0  0  0  0  0  0  0  0
   -3.6688    0.0000    0.0000 C   0  0  0  0  0  0  0  0  0  0  0  0
   -4.2006    0.0000    0.0000 O   0  0  0  0  0  0  0  0  0  0  0  0
   -3.9491    0.0000    0.0000 C   0  0  0  0  0  0  0  0  0  0  0  0
   -4.7612    0.0000    0.0000 O   0  0  0  0  0  0  0  0  0  0  0  0
   -3.4172    0.0000    0.0000 C   0  0  0  0  0  0  0  0  0  0  0  0
   -3.6975    0.0000    0.0000 O   0  0  0  0  0  0  0  0  0  0  0  0
   -0.7293    0.0000    0.0000 C   0  0  0  0  0  0  0  0  0  0  0  0
   -1.3410    0.0000    0.0000 C   0  0  0  0  0  0  0  0  0  0  0  0
   -0.6125    0.0000    0.0000 C   0  0  0  0  0  0  0  0  0  0  0  0
  1  2  1  0      
  2  3  1  0      
  2  4  1  0      
  2  5  1  0      
  5  6  1  0      
  6  7  1  0      
  7  8  1  0      
  8  9  1  0      
  8 10  1  0      
  5 10  1  0      
  8 11  1  0      
 11 12  1  0      
 12 13  1  0      
 12 14  1  0      
 14 15  1  0      
 15 16  1  0      
 15 17  1  0      
 17 18  1  0      
 18 19  1  0      
 19 20  1  0      
 20 21  1  0      
 21 22  1  0      
 22 23  1  0      
 23 24  1  0      
 24 25  1  0      
 23 26  1  0      
 26 27  1  0      
 26 28  1  0      
 28 29  1  0      
 28 30  1  0      
 21 30  1  0      
 30 31  1  0      
 19 32  1  0      
 32 33  1  0      
 33 34  1  0      
 34 35  1  0      
 17 35  1  0      
 33 35  1  0      
 35 36  1  0      
 36 37  1  0      
 37 38  1  0      
 11 38  1  0      
 15 38  1  0      
 38 39  1  0      
 33 40  1  0      
 40 41  1  0      
 41 42  1  0      
 42 43  1  0      
 43 44  1  0      
 44 45  1  0      
 45 46  1  0      
 46 47  1  0      
 47 48  1  0      
 47 49  1  0      
 49 50  1  0      
 49 51  1  0      
 44 51  1  0      
 51 52  1  0      
 42 53  1  0      
 32 53  1  0      
 53 54  1  0      
 53 55  1  0      
M  END
>  <Bioactivity>
Astragaloside IV is generally considered to be the primary active ingredient in Astragalus extract,an herbal extract which has been famous for literally thousands of years for its anti-aging propertie
s.

>  <CAS>
84687-43-4

>  <Col>
11

>  <Formula>
C41H68O14

>  <ID>
T2973

>  <Index>
470

>  <MOLENAME>
Astragaloside IV

>  <MolWt>
784.99

>  <Pathways>
Immunology/Inflammation

>  <Plate>
PLATE 006

>  <QR code>
1151480240

>  <Receptor>
ERS

>  <Reference>
1. Shao A, et al. Int J Med Sci. 2014 Aug 8;11(10):1073-81.

>  <Row>
G

>  <SMILES>
CC(C)(O)C1CCC(C)(O1)C1C(O)CC2(C)C3CC(OC4OC(CO)C(O)C(O)C4O)C4C5(CC35CCC12C)CCC(OC1OCC(O)C(O)C1O)C4(C)C

>  <Target>
Others

>  <Weight>
10.1mg

$$$$
Lab-1.sdf
  ChemDraw05232018482D

 33 36  0  0  0  0  0  0  0  0999 V2000
   -3.5723    0.0000    0.0000 O   0  0  0  0  0  0  0  0  0  0  0  0
   -2.8578    0.0000    0.0000 C   0  0  0  0  0  0  0  0  0  0  0  0
   -2.8578    0.0000    0.0000 C   0  0  0  0  0  0  0  0  0  0  0  0
   -2.1435    0.0000    0.0000 C   0  0  0  0  0  0  0  0  0  0  0  0
   -2.1435    0.0000    0.0000 O   0  0  0  0  0  0  0  0  0  0  0  0
   -1.4289    0.0000    0.0000 C   0  0  0  0  0  0  0  0  0  0  0  0
   -0.7145    0.0000    0.0000 C   0  0  0  0  0  0  0  0  0  0  0  0
    0.0001    0.0000    0.0000 C   0  0  0  0  0  0  0  0  0  0  0  0
    0.7144    0.0000    0.0000 O   0  0  0  0  0  0  0  0  0  0  0  0
    0.7144    0.0000    0.0000 C   0  0  0  0  0  0  0  0  0  0  0  0
    0.0001    0.0000    0.0000 O   0  0  0  0  0  0  0  0  0  0  0  0
    1.4289    0.0000    0.0000 C   0  0  0  0  0  0  0  0  0  0  0  0
    1.4289    0.0000    0.0000 C   0  0  0  0  0  0  0  0  0  0  0  0
    2.1434    0.0000    0.0000 C   0  0  0  0  0  0  0  0  0  0  0  0
    2.1434    0.0000    0.0000 O   0  0  0  0  0  0  0  0  0  0  0  0
    2.8578    0.0000    0.0000 C   0  0  0  0  0  0  0  0  0  0  0  0
    3.5723    0.0000    0.0000 O   0  0  0  0  0  0  0  0  0  0  0  0
    2.8578    0.0000    0.0000 C   0  0  0  0  0  0  0  0  0  0  0  0
    3.5723    0.0000    0.0000 O   0  0  0  0  0  0  0  0  0  0  0  0
    2.1434    0.0000    0.0000 C   0  0  0  0  0  0  0  0  0  0  0  0
    0.0001    0.0000    0.0000 C   0  0  0  0  0  0  0  0  0  0  0  0
   -0.7145    0.0000    0.0000 O   0  0  0  0  0  0  0  0  0  0  0  0
   -1.4289    0.0000    0.0000 C   0  0  0  0  0  0  0  0  0  0  0  0
   -2.1435    0.0000    0.0000 C   0  0  0  0  0  0  0  0  0  0  0  0
    0.7144    0.0000    0.0000 C   0  0  0  0  0  0  0  0  0  0  0  0
    1.4289    0.0000    0.0000 C   0  0  0  0  0  0  0  0  0  0  0  0
    2.1434    0.0000    0.0000 C   0  0  0  0  0  0  0  0  0  0  0  0
    2.8578    0.0000    0.0000 O   0  0  0  0  0  0  0  0  0  0  0  0
    2.1434    0.0000    0.0000 C   0  0  0  0  0  0  0  0  0  0  0  0
    2.8578    0.0000    0.0000 O   0  0  0  0  0  0  0  0  0  0  0  0
    1.4289    0.0000    0.0000 C   0  0  0  0  0  0  0  0  0  0  0  0
    1.4289    0.0000    0.0000 O   0  0  0  0  0  0  0  0  0  0  0  0
    0.7144    0.0000    0.0000 C   0  0  0  0  0  0  0  0  0  0  0  0
  1  2  1  0      
  2  3  2  0      
  3  4  1  0      
  4  5  1  0      
  4  6  2  0      
  6  7  1  0      
  7  8  1  0      
  8  9  1  0      
  9 10  1  0      
 10 11  2  0      
 10 12  1  0      
 12 13  2  0      
 13 14  1  0      
 14 15  1  0      
 14 16  2  0      
 16 17  1  0      
 16 18  1  0      
 18 19  1  0      
 18 20  2  0      
 12 20  1  0      
  8 21  1  0      
 21 22  1  0      
 22 23  1  0      
  6 23  1  0      
 23 24  2  0      
  2 24  1  0      
 21 25  1  0      
 25 26  2  0      
 26 27  1  0      
 27 28  1  0      
 27 29  2  0      
 29 30  1  0      
 29 31  1  0      
 31 32  1  0      
 31 33  2  0      
 25 33  1  0      
M  END
>  <Bioactivity>
Epigallocatechol Gallate(EGCG) is an antioxidant polyphenol flavonoid that inhibits telomerase and DNA methyltransferase. EGCG blocks the activation of EGF receptors and HER-2 receptors.

>  <CAS>
989-51-5

>  <Col>
2

>  <Formula>
C22H18O11

>  <ID>
T2988

>  <Index>
471

>  <MOLENAME>
(-)-Epigallocatechin Gallate

>  <MolWt>
458.38

>  <Pathways>
Others

>  <Plate>
PLATE 006

>  <QR code>
1151480228

>  <Receptor>
Others

>  <Reference>
1. Khan N, et al. Y Res, 2006, 66(5), 2500-2505.

>  <Row>
H

>  <SMILES>
OC1=CC(O)=C2CC(OC(=O)C3=CC(O)=C(O)C(O)=C3)C(OC2=C1)C1=CC(O)=C(O)C(O)=C1

>  <Target>
telomerase; DNA methyltransferase inhibitor

>  <Weight>
10.3mg

$$$$
Lab-1.sdf
  ChemDraw05232018482D

 14 15  0  0  0  0  0  0  0  0999 V2000
   -2.1433    0.0000    0.0000 C   0  0  0  0  0  0  0  0  0  0  0  0
   -2.1433    0.0000    0.0000 O   0  0  0  0  0  0  0  0  0  0  0  0
   -1.4289    0.0000    0.0000 C   0  0  0  0  0  0  0  0  0  0  0  0
   -1.4289    0.0000    0.0000 C   0  0  0  0  0  0  0  0  0  0  0  0
   -2.1433    0.0000    0.0000 O   0  0  0  0  0  0  0  0  0  0  0  0
   -0.7145    0.0000    0.0000 C   0  0  0  0  0  0  0  0  0  0  0  0
   -0.0000    0.0000    0.0000 C   0  0  0  0  0  0  0  0  0  0  0  0
    0.7145    0.0000    0.0000 O   0  0  0  0  0  0  0  0  0  0  0  0
    1.4290    0.0000    0.0000 C   0  0  0  0  0  0  0  0  0  0  0  0
    2.1433    0.0000    0.0000 O   0  0  0  0  0  0  0  0  0  0  0  0
    1.4290    0.0000    0.0000 C   0  0  0  0  0  0  0  0  0  0  0  0
    0.7145    0.0000    0.0000 C   0  0  0  0  0  0  0  0  0  0  0  0
   -0.0000    0.0000    0.0000 C   0  0  0  0  0  0  0  0  0  0  0  0
   -0.7145    0.0000    0.0000 C   0  0  0  0  0  0  0  0  0  0  0  0
  1  2  1  0      
  2  3  1  0      
  3  4  2  0      
  4  5  1  0      
  4  6  1  0      
  6  7  2  0      
  7  8  1  0      
  8  9  1  0      
  9 10  2  0      
  9 11  1  0      
 11 12  2  0      
 12 13  1  0      
  7 13  1  0      
 13 14  2  0      
  3 14  1  0      
M  END
>  <Bioactivity>
Plant growth factor derived from the root of Scopolia carniolica or Scopolia japonica.

>  <CAS>
92-61-5

>  <Col>
3

>  <Formula>
C10H8O4

>  <ID>
T2984

>  <Index>
472

>  <MOLENAME>
Scopoletin

>  <MolWt>
192.17

>  <Pathways>
Neuroscience

>  <Plate>
PLATE 006

>  <QR code>
1151480229

>  <Receptor>
Muscarinic AChR

>  <Reference>
1. Lee HI, Lee MK. Toxicol Lett. 2015 Sep 17;237(3):210-8. 

>  <Row>
H

>  <SMILES>
COC1=C(O)C=C2OC(=O)C=CC2=C1

>  <Target>
AChR antagonist

>  <Weight>
10.4mg

$$$$
Lab-1.sdf
  ChemDraw05232018482D

 10 10  0  0  0  0  0  0  0  0999 V2000
    0.7145    0.0000    0.0000 C   0  0  0  0  0  0  0  0  0  0  0  0
    0.7145    0.0000    0.0000 N   0  3  0  0  0  0  0  0  0  0  0  0
    1.4289    0.0000    0.0000 C   0  0  0  0  0  0  0  0  0  0  0  0
    1.4289    0.0000    0.0000 C   0  0  0  0  0  0  0  0  0  0  0  0
    0.7145    0.0000    0.0000 C   0  0  0  0  0  0  0  0  0  0  0  0
   -0.0000    0.0000    0.0000 C   0  0  0  0  0  0  0  0  0  0  0  0
   -0.0000    0.0000    0.0000 C   0  0  0  0  0  0  0  0  0  0  0  0
   -0.7145    0.0000    0.0000 C   0  0  0  0  0  0  0  0  0  0  0  0
   -0.7145    0.0000    0.0000 O   0  0  0  0  0  0  0  0  0  0  0  0
   -1.4289    0.0000    0.0000 O   0  0  0  0  0  0  0  0  0  0  0  0
  1  2  1  0      
  2  3  2  0      
  3  4  1  0      
  4  5  2  0      
  5  6  1  0      
  6  7  2  0      
  2  7  1  0      
  6  8  1  0      
  8  9  1  0      
  8 10  2  0      
M  CHG  1   2   1
M  END
>  <Bioactivity>
Extracted from Trigonellafoenum-graecumL. seeds;Store the product in sealed, cool and dry condition.

>  <CAS>
535-83-1

>  <Col>
4

>  <Formula>
C7H7NO2

>  <ID>
T2887

>  <Index>
473

>  <MOLENAME>
Trigonelline

>  <MolWt>
137.14

>  <Pathways>
Others

>  <Plate>
PLATE 006

>  <QR code>
1151480230

>  <Receptor>
Others

>  <Reference>
1. Zhang DF, et al. Asian Pac J Trop Med. 2015 Aug;8(8):651-4. 

>  <Row>
H

>  <SMILES>
C[N+]1=CC=CC(=C1)C(O)=O

>  <Target>
Others

>  <Weight>
10.2mg

$$$$
Lab-1.sdf
  ChemDraw05232018482D

 27 29  0  0  0  0  0  0  0  0999 V2000
   -5.0944    0.0000    0.0000 Cl  0  0  0  0  0  0  0  0  0  0  0  0
   -2.7372    0.0000    0.0000 C   0  0  0  0  0  0  0  0  0  0  0  0
   -2.1971    0.0000    0.0000 O   0  0  0  0  0  0  0  0  0  0  0  0
   -1.3868    0.0000    0.0000 C   0  0  0  0  0  0  0  0  0  0  0  0
   -0.8467    0.0000    0.0000 C   0  0  0  0  0  0  0  0  0  0  0  0
   -1.1168    0.0000    0.0000 O   0  0  0  0  0  0  0  0  0  0  0  0
   -0.5767    0.0000    0.0000 C   0  0  0  0  0  0  0  0  0  0  0  0
   -0.0366    0.0000    0.0000 C   0  0  0  0  0  0  0  0  0  0  0  0
    0.2334    0.0000    0.0000 C   0  0  0  0  0  0  0  0  0  0  0  0
    1.0436    0.0000    0.0000 C   0  0  0  0  0  0  0  0  0  0  0  0
    1.5837    0.0000    0.0000 C   0  0  0  0  0  0  0  0  0  0  0  0
    2.3939    0.0000    0.0000 C   0  0  0  0  0  0  0  0  0  0  0  0
    2.6639    0.0000    0.0000 C   0  0  0  0  0  0  0  0  0  0  0  0
    2.1238    0.0000    0.0000 C   0  0  0  0  0  0  0  0  0  0  0  0
    1.3136    0.0000    0.0000 N   0  0  0  0  0  0  0  0  0  0  0  0
    0.7735    0.0000    0.0000 C   0  0  0  0  0  0  0  0  0  0  0  0
   -0.0366    0.0000    0.0000 C   0  0  0  0  0  0  0  0  0  0  0  0
   -0.3067    0.0000    0.0000 C   0  0  0  0  0  0  0  0  0  0  0  0
   -1.1168    0.0000    0.0000 C   0  0  0  0  0  0  0  0  0  0  0  0
    3.4741    0.0000    0.0000 C   0  0  0  0  0  0  0  0  0  0  0  0
    3.7441    0.0000    0.0000 O   0  0  0  0  0  0  0  0  0  0  0  0
    4.5542    0.0000    0.0000 C   0  0  0  0  0  0  0  0  0  0  0  0
    4.0142    0.0000    0.0000 C   0  0  0  0  0  0  0  0  0  0  0  0
    4.8243    0.0000    0.0000 O   0  0  0  0  0  0  0  0  0  0  0  0
    5.0944    0.0000    0.0000 C   0  0  0  0  0  0  0  0  0  0  0  0
    3.7441    0.0000    0.0000 C   0  0  0  0  0  0  0  0  0  0  0  0
    2.9340    0.0000    0.0000 C   0  0  0  0  0  0  0  0  0  0  0  0
  2  3  1  0      
  3  4  1  0      
  4  5  2  0      
  5  6  1  0      
  6  7  1  0      
  5  8  1  0      
  8  9  2  0      
  9 10  1  0      
 10 11  1  0      
 11 12  1  0      
 12 13  2  0      
 13 14  1  0      
 14 15  1  0      
 10 15  1  0      
 15 16  1  0      
 16 17  1  0      
 17 18  1  0      
  9 18  1  0      
 18 19  2  0      
  4 19  1  0      
 13 20  1  0      
 20 21  1  0      
 21 22  1  0      
 20 23  2  0      
 23 24  1  0      
 24 25  1  0      
 23 26  1  0      
 26 27  2  0      
 12 27  1  0      
M  END
>  <Bioactivity>
Tetrahydropalmatine (THP) is an alkaloid found in several different plant species, mainly in the Corydalis genus (Yan Hu Suo), but also in other plants such as Stephania rotunda.

>  <CAS>
6024-85-7

>  <Col>
5

>  <Formula>
C21H26ClNO4

>  <ID>
T2917

>  <Index>
474

>  <MOLENAME>
Tetrahydropalmatine hydrochloride

>  <MolWt>
391.89

>  <Pathways>
Others

>  <Plate>
PLATE 006

>  <QR code>
1151480231

>  <Receptor>
Others

>  <Reference>
1. Lee SJ, et al.Biochem Biophys Res Commun. 2014 Dec 12;455(3-4):147-52.

>  <Row>
H

>  <SMILES>
Cl.COC1=C(OC)C=C2C3CC4=C(CN3CCC2=C1)C(OC)=C(OC)C=C4

>  <Target>
Others

>  <Weight>
9.9mg

$$$$
Lab-1.sdf
  ChemDraw05232018482D

 75 82  0  0  0  0  0  0  0  0999 V2000
   -1.5701    0.0000    0.0000 C   0  0  0  0  0  0  0  0  0  0  0  0
   -2.3873    0.0000    0.0000 C   0  0  0  0  0  0  0  0  0  0  0  0
   -2.8937    0.0000    0.0000 C   0  0  0  0  0  0  0  0  0  0  0  0
   -2.6982    0.0000    0.0000 C   0  0  0  0  0  0  0  0  0  0  0  0
   -3.5155    0.0000    0.0000 C   0  0  0  0  0  0  0  0  0  0  0  0
   -3.8264    0.0000    0.0000 C   0  0  0  0  0  0  0  0  0  0  0  0
   -3.3200    0.0000    0.0000 C   0  0  0  0  0  0  0  0  0  0  0  0
   -2.6687    0.0000    0.0000 C   0  0  0  0  0  0  0  0  0  0  0  0
   -3.9713    0.0000    0.0000 O   0  0  0  0  0  0  0  0  0  0  0  0
   -4.7356    0.0000    0.0000 C   0  0  0  0  0  0  0  0  0  0  0  0
   -4.8485    0.0000    0.0000 O   0  0  0  0  0  0  0  0  0  0  0  0
   -5.6126    0.0000    0.0000 C   0  0  0  0  0  0  0  0  0  0  0  0
   -5.7255    0.0000    0.0000 C   0  0  0  0  0  0  0  0  0  0  0  0
   -6.4897    0.0000    0.0000 O   0  0  0  0  0  0  0  0  0  0  0  0
   -6.6025    0.0000    0.0000 C   0  0  0  0  0  0  0  0  0  0  0  0
   -7.3300    0.0000    0.0000 O   0  0  0  0  0  0  0  0  0  0  0  0
   -7.1848    0.0000    0.0000 C   0  0  0  0  0  0  0  0  0  0  0  0
   -7.7565    0.0000    0.0000 C   0  0  0  0  0  0  0  0  0  0  0  0
   -7.5272    0.0000    0.0000 O   0  0  0  0  0  0  0  0  0  0  0  0
   -6.3676    0.0000    0.0000 C   0  0  0  0  0  0  0  0  0  0  0  0
   -5.9785    0.0000    0.0000 O   0  0  0  0  0  0  0  0  0  0  0  0
   -6.0077    0.0000    0.0000 C   0  0  0  0  0  0  0  0  0  0  0  0
   -5.1956    0.0000    0.0000 O   0  0  0  0  0  0  0  0  0  0  0  0
   -6.2640    0.0000    0.0000 C   0  0  0  0  0  0  0  0  0  0  0  0
   -7.0282    0.0000    0.0000 O   0  0  0  0  0  0  0  0  0  0  0  0
   -6.1511    0.0000    0.0000 C   0  0  0  0  0  0  0  0  0  0  0  0
   -6.8024    0.0000    0.0000 O   0  0  0  0  0  0  0  0  0  0  0  0
   -5.3869    0.0000    0.0000 C   0  0  0  0  0  0  0  0  0  0  0  0
   -5.2741    0.0000    0.0000 O   0  0  0  0  0  0  0  0  0  0  0  0
   -2.8136    0.0000    0.0000 C   0  0  0  0  0  0  0  0  0  0  0  0
   -3.0430    0.0000    0.0000 C   0  0  0  0  0  0  0  0  0  0  0  0
   -2.3601    0.0000    0.0000 C   0  0  0  0  0  0  0  0  0  0  0  0
   -1.7088    0.0000    0.0000 C   0  0  0  0  0  0  0  0  0  0  0  0
   -1.5111    0.0000    0.0000 C   0  0  0  0  0  0  0  0  0  0  0  0
   -1.9891    0.0000    0.0000 C   0  0  0  0  0  0  0  0  0  0  0  0
   -1.4573    0.0000    0.0000 C   0  0  0  0  0  0  0  0  0  0  0  0
   -1.7376    0.0000    0.0000 O   0  0  0  0  0  0  0  0  0  0  0  0
   -0.6451    0.0000    0.0000 C   0  0  0  0  0  0  0  0  0  0  0  0
   -0.3648    0.0000    0.0000 C   0  0  0  0  0  0  0  0  0  0  0  0
    0.4474    0.0000    0.0000 C   0  0  0  0  0  0  0  0  0  0  0  0
    0.1671    0.0000    0.0000 C   0  0  0  0  0  0  0  0  0  0  0  0
    0.9792    0.0000    0.0000 C   0  0  0  0  0  0  0  0  0  0  0  0
    1.7913    0.0000    0.0000 C   0  0  0  0  0  0  0  0  0  0  0  0
    2.0716    0.0000    0.0000 C   0  0  0  0  0  0  0  0  0  0  0  0
    2.8837    0.0000    0.0000 O   0  0  0  0  0  0  0  0  0  0  0  0
    3.4156    0.0000    0.0000 C   0  0  0  0  0  0  0  0  0  0  0  0
    3.1353    0.0000    0.0000 O   0  0  0  0  0  0  0  0  0  0  0  0
    3.6671    0.0000    0.0000 C   0  0  0  0  0  0  0  0  0  0  0  0
    3.3868    0.0000    0.0000 C   0  0  0  0  0  0  0  0  0  0  0  0
    3.9186    0.0000    0.0000 O   0  0  0  0  0  0  0  0  0  0  0  0
    4.4793    0.0000    0.0000 C   0  0  0  0  0  0  0  0  0  0  0  0
    5.0111    0.0000    0.0000 O   0  0  0  0  0  0  0  0  0  0  0  0
    4.7596    0.0000    0.0000 C   0  0  0  0  0  0  0  0  0  0  0  0
    5.5717    0.0000    0.0000 O   0  0  0  0  0  0  0  0  0  0  0  0
    4.2277    0.0000    0.0000 C   0  0  0  0  0  0  0  0  0  0  0  0
    4.5081    0.0000    0.0000 O   0  0  0  0  0  0  0  0  0  0  0  0
    5.3202    0.0000    0.0000 C   0  0  0  0  0  0  0  0  0  0  0  0
    5.8520    0.0000    0.0000 O   0  0  0  0  0  0  0  0  0  0  0  0
    6.6641    0.0000    0.0000 C   0  0  0  0  0  0  0  0  0  0  0  0
    7.1959    0.0000    0.0000 C   0  0  0  0  0  0  0  0  0  0  0  0
    6.9157    0.0000    0.0000 O   0  0  0  0  0  0  0  0  0  0  0  0
    6.9444    0.0000    0.0000 C   0  0  0  0  0  0  0  0  0  0  0  0
    7.7565    0.0000    0.0000 O   0  0  0  0  0  0  0  0  0  0  0  0
    6.4126    0.0000    0.0000 C   0  0  0  0  0  0  0  0  0  0  0  0
    6.6929    0.0000    0.0000 O   0  0  0  0  0  0  0  0  0  0  0  0
    5.6005    0.0000    0.0000 C   0  0  0  0  0  0  0  0  0  0  0  0
    5.0687    0.0000    0.0000 O   0  0  0  0  0  0  0  0  0  0  0  0
    1.5398    0.0000    0.0000 C   0  0  0  0  0  0  0  0  0  0  0  0
    2.2533    0.0000    0.0000 C   0  0  0  0  0  0  0  0  0  0  0  0
    1.2558    0.0000    0.0000 C   0  0  0  0  0  0  0  0  0  0  0  0
    0.7277    0.0000    0.0000 C   0  0  0  0  0  0  0  0  0  0  0  0
    0.1959    0.0000    0.0000 C   0  0  0  0  0  0  0  0  0  0  0  0
   -0.6164    0.0000    0.0000 C   0  0  0  0  0  0  0  0  0  0  0  0
   -0.8967    0.0000    0.0000 C   0  0  0  0  0  0  0  0  0  0  0  0
   -1.2076    0.0000    0.0000 C   0  0  0  0  0  0  0  0  0  0  0  0
  1  2  1  0      
  2  3  1  0      
  2  4  2  0      
  4  5  1  0      
  5  6  1  0      
  6  7  1  0      
  7  8  1  0      
  7  9  1  0      
  9 10  1  0      
 10 11  1  0      
 11 12  1  0      
 12 13  1  0      
 13 14  1  0      
 14 15  1  0      
 15 16  1  0      
 16 17  1  0      
 17 18  1  0      
 18 19  1  0      
 17 20  1  0      
 20 21  1  0      
 20 22  1  0      
 15 22  1  0      
 22 23  1  0      
 12 24  1  0      
 24 25  1  0      
 24 26  1  0      
 26 27  1  0      
 26 28  1  0      
 10 28  1  0      
 28 29  1  0      
  7 30  1  0      
 30 31  1  0      
 31 32  1  0      
 32 33  1  0      
 33 34  1  0      
 33 35  1  0      
 30 35  1  0      
 35 36  1  0      
 36 37  1  0      
 36 38  1  0      
 38 39  1  0      
 39 40  1  0      
 40 41  1  0      
 40 42  1  0      
 42 43  1  0      
 43 44  1  0      
 44 45  1  0      
 45 46  1  0      
 46 47  1  0      
 47 48  1  0      
 48 49  1  0      
 49 50  1  0      
 48 51  1  0      
 51 52  1  0      
 51 53  1  0      
 53 54  1  0      
 53 55  1  0      
 46 55  1  0      
 55 56  1  0      
 56 57  1  0      
 57 58  1  0      
 58 59  1  0      
 59 60  1  0      
 60 61  1  0      
 59 62  1  0      
 62 63  1  0      
 62 64  1  0      
 64 65  1  0      
 64 66  1  0      
 57 66  1  0      
 66 67  1  0      
 44 68  1  0      
 68 69  1  0      
 68 70  1  0      
 68 71  1  0      
 40 71  1  0      
 71 72  1  0      
 72 73  1  0      
 73 74  1  0      
 33 74  1  0      
 39 74  1  0      
 74 75  1  0      
M  END
>  <Bioactivity>
Ginsenoside Rc is a steroid glycoside, and triterpene saponins, found exclusively in the plant genus Panax (ginseng); have properties that inhibit or prevent tumors growth.

>  <CAS>
11021-14-0

>  <Col>
6

>  <Formula>
C53H90O22

>  <ID>
T2720

>  <Index>
475

>  <MOLENAME>
Ginsenoside Rc

>  <MolWt>
1079.27

>  <Pathways>
Others

>  <Plate>
PLATE 006

>  <QR code>
1151480232

>  <Receptor>
Others

>  <Reference>
1. Yang JW, Kim SS. Molecules. 2015 Jan 14;20(1):1293-303. 

>  <Row>
H

>  <SMILES>
CC(C)=CCCC(C)(OC1OC(COC2OC(CO)C(O)C2O)C(O)C(O)C1O)C1CCC2(C)C1C(O)CC1C3(C)CCC(OC4OC(CO)C(O)C(O)C4OC4OC(CO)C(O)C(O)C4O)C(C)(C)C3CCC21C

>  <Target>
Others

>  <Weight>
10.3mg

$$$$
Lab-1.sdf
  ChemDraw05232018482D

 29 33  0  0  0  0  0  0  0  0999 V2000
    3.9038    0.0000    0.0000 C   0  0  0  0  0  0  0  0  0  0  0  0
    3.3975    0.0000    0.0000 N   0  0  0  0  0  0  0  0  0  0  0  0
    2.5802    0.0000    0.0000 C   0  0  0  0  0  0  0  0  0  0  0  0
    2.2693    0.0000    0.0000 C   0  0  0  0  0  0  0  0  0  0  0  0
    2.0739    0.0000    0.0000 C   0  0  0  0  0  0  0  0  0  0  0  0
    2.3032    0.0000    0.0000 C   0  0  0  0  0  0  0  0  0  0  0  0
    3.0791    0.0000    0.0000 O   0  0  0  0  0  0  0  0  0  0  0  0
    1.6203    0.0000    0.0000 C   0  0  0  0  0  0  0  0  0  0  0  0
    0.9690    0.0000    0.0000 C   0  0  0  0  0  0  0  0  0  0  0  0
    0.7714    0.0000    0.0000 C   0  0  0  0  0  0  0  0  0  0  0  0
    0.1569    0.0000    0.0000 C   0  0  0  0  0  0  0  0  0  0  0  0
   -0.1235    0.0000    0.0000 C   0  0  0  0  0  0  0  0  0  0  0  0
   -0.9356    0.0000    0.0000 C   0  0  0  0  0  0  0  0  0  0  0  0
   -1.4674    0.0000    0.0000 C   0  0  0  0  0  0  0  0  0  0  0  0
   -1.1871    0.0000    0.0000 C   0  0  0  0  0  0  0  0  0  0  0  0
   -0.9068    0.0000    0.0000 C   0  0  0  0  0  0  0  0  0  0  0  0
   -0.3750    0.0000    0.0000 C   0  0  0  0  0  0  0  0  0  0  0  0
   -0.0947    0.0000    0.0000 C   0  0  0  0  0  0  0  0  0  0  0  0
    0.7175    0.0000    0.0000 C   0  0  0  0  0  0  0  0  0  0  0  0
    1.2493    0.0000    0.0000 C   0  0  0  0  0  0  0  0  0  0  0  0
    1.6092    0.0000    0.0000 C   0  0  0  0  0  0  0  0  0  0  0  0
   -1.7190    0.0000    0.0000 C   0  0  0  0  0  0  0  0  0  0  0  0
   -2.5311    0.0000    0.0000 C   0  0  0  0  0  0  0  0  0  0  0  0
   -2.8114    0.0000    0.0000 C   0  0  0  0  0  0  0  0  0  0  0  0
   -3.6235    0.0000    0.0000 N   0  0  0  0  0  0  0  0  0  0  0  0
   -3.9038    0.0000    0.0000 C   0  0  0  0  0  0  0  0  0  0  0  0
   -2.2796    0.0000    0.0000 C   0  0  0  0  0  0  0  0  0  0  0  0
   -2.8913    0.0000    0.0000 C   0  0  0  0  0  0  0  0  0  0  0  0
   -2.1628    0.0000    0.0000 C   0  0  0  0  0  0  0  0  0  0  0  0
  1  2  1  0      
  2  3  1  0      
  3  4  1  0      
  3  5  1  0      
  5  6  1  0      
  6  7  1  0      
  6  8  1  0      
  8  9  1  0      
  9 10  1  0      
  9 11  1  0      
 11 12  1  0      
 12 13  1  0      
 13 14  1  0      
 14 15  1  0      
 15 16  1  0      
 16 17  1  0      
 11 17  1  0      
 15 17  1  0      
 17 18  1  0      
 18 19  1  0      
 19 20  1  0      
  5 20  1  0      
  9 20  1  0      
 20 21  1  0      
 15 22  1  0      
 22 23  1  0      
 23 24  1  0      
 24 25  1  0      
 25 26  1  0      
 24 27  1  0      
 14 27  1  0      
 27 28  1  0      
 27 29  1  0      
M  END
>  <Bioactivity>
Extracted from Buxus microphylla;Suitability:Chloroform,methanol and ethanol;Store the product in sealed,cool and dry condition

>  <CAS>
860-79-7

>  <Col>
7

>  <Formula>
C26H46N2O

>  <ID>
T2974

>  <Index>
476

>  <MOLENAME>
Cyclovirobuxin D

>  <MolWt>
402.66

>  <Pathways>
Others

>  <Plate>
PLATE 006

>  <QR code>
1151480233

>  <Receptor>
Others

>  <Reference>
1. Hu D, et al. Eur J Pharmacol, 2007, 569(1-2), 103-109.

>  <Row>
H

>  <SMILES>
CNC(C)C1C(O)CC2(C)C3CCC4C5(CC35CCC12C)CCC(NC)C4(C)C

>  <Target>
Others

>  <Weight>
10.2mg

$$$$
Lab-1.sdf
  ChemDraw05232018482D

 26 28  0  0  0  0  0  0  0  0999 V2000
    2.7790    0.0000    0.0000 C   0  0  0  0  0  0  0  0  0  0  0  0
    2.2389    0.0000    0.0000 O   0  0  0  0  0  0  0  0  0  0  0  0
    1.4286    0.0000    0.0000 C   0  0  0  0  0  0  0  0  0  0  0  0
    0.8885    0.0000    0.0000 C   0  0  0  0  0  0  0  0  0  0  0  0
    0.0784    0.0000    0.0000 C   0  0  0  0  0  0  0  0  0  0  0  0
   -0.4617    0.0000    0.0000 C   0  0  0  0  0  0  0  0  0  0  0  0
   -1.2718    0.0000    0.0000 N   0  3  0  0  0  0  0  0  0  0  0  0
   -1.5419    0.0000    0.0000 C   0  0  0  0  0  0  0  0  0  0  0  0
   -1.0018    0.0000    0.0000 C   0  0  0  0  0  0  0  0  0  0  0  0
   -0.1916    0.0000    0.0000 C   0  0  0  0  0  0  0  0  0  0  0  0
    0.3485    0.0000    0.0000 C   0  0  0  0  0  0  0  0  0  0  0  0
    1.1586    0.0000    0.0000 C   0  0  0  0  0  0  0  0  0  0  0  0
   -2.3521    0.0000    0.0000 C   0  0  0  0  0  0  0  0  0  0  0  0
   -2.6221    0.0000    0.0000 C   0  0  0  0  0  0  0  0  0  0  0  0
   -3.4323    0.0000    0.0000 C   0  0  0  0  0  0  0  0  0  0  0  0
   -3.9724    0.0000    0.0000 C   0  0  0  0  0  0  0  0  0  0  0  0
   -3.7023    0.0000    0.0000 C   0  0  0  0  0  0  0  0  0  0  0  0
   -2.8922    0.0000    0.0000 C   0  0  0  0  0  0  0  0  0  0  0  0
   -2.6221    0.0000    0.0000 C   0  0  0  0  0  0  0  0  0  0  0  0
   -1.8120    0.0000    0.0000 C   0  0  0  0  0  0  0  0  0  0  0  0
   -4.7825    0.0000    0.0000 O   0  0  0  0  0  0  0  0  0  0  0  0
   -3.7023    0.0000    0.0000 O   0  0  0  0  0  0  0  0  0  0  0  0
   -4.5124    0.0000    0.0000 C   0  0  0  0  0  0  0  0  0  0  0  0
    1.1586    0.0000    0.0000 O   0  0  0  0  0  0  0  0  0  0  0  0
    0.6185    0.0000    0.0000 C   0  0  0  0  0  0  0  0  0  0  0  0
    4.7825    0.0000    0.0000 Cl  0  0  0  0  0  0  0  0  0  0  0  0
  1  2  1  0      
  2  3  1  0      
  3  4  2  0      
  4  5  1  0      
  5  6  2  0      
  6  7  1  0      
  7  8  2  0      
  8  9  1  0      
  9 10  2  0      
  5 10  1  0      
 10 11  1  0      
 11 12  2  0      
  3 12  1  0      
  8 13  1  0      
 13 14  2  0      
 14 15  1  0      
 15 16  2  0      
 16 17  1  0      
 17 18  2  0      
 13 18  1  0      
 18 19  1  0      
 19 20  1  0      
  7 20  1  0      
 16 21  1  0      
 15 22  1  0      
 22 23  1  0      
  4 24  1  0      
 24 25  1  0      
M  CHG  1   7   1
M  END
>  <Bioactivity>
Extracted from berberidis,radix;Store the product in sealed,cool and dry condition

>  <CAS>
960383-96-4

>  <Col>
8

>  <Formula>
C20H20ClNO4

>  <ID>
T2986

>  <Index>
477

>  <MOLENAME>
Jatrorrhizine hydrochloride

>  <MolWt>
373.83

>  <Pathways>
Others

>  <Plate>
PLATE 006

>  <QR code>
1151480234

>  <Receptor>
Others

>  <Reference>
1. Ye Z, et al. Talanta. 2014 Aug;126:38-45. 

>  <Row>
H

>  <SMILES>
COC1=C(C2=C[N+]3=C(C=C2C=C1)C4=CC(=C(C=C4CC3)O)OC)OC.Cl

>  <Target>
Others

>  <Weight>
10.2mg

$$$$
Lab-1.sdf
  ChemDraw05232018482D

 25 27  0  0  0  0  0  0  0  0999 V2000
   -3.5723    0.0000    0.0000 O   0  0  0  0  0  0  0  0  0  0  0  0
   -2.8578    0.0000    0.0000 C   0  0  0  0  0  0  0  0  0  0  0  0
   -2.1433    0.0000    0.0000 C   0  0  0  0  0  0  0  0  0  0  0  0
   -1.4289    0.0000    0.0000 O   0  0  0  0  0  0  0  0  0  0  0  0
   -0.7145    0.0000    0.0000 C   0  0  0  0  0  0  0  0  0  0  0  0
   -0.0000    0.0000    0.0000 O   0  0  0  0  0  0  0  0  0  0  0  0
    0.7145    0.0000    0.0000 C   0  0  0  0  0  0  0  0  0  0  0  0
    0.7145    0.0000    0.0000 O   0  0  0  0  0  0  0  0  0  0  0  0
    1.4289    0.0000    0.0000 C   0  0  0  0  0  0  0  0  0  0  0  0
    2.1433    0.0000    0.0000 C   0  0  0  0  0  0  0  0  0  0  0  0
    2.8578    0.0000    0.0000 C   0  0  0  0  0  0  0  0  0  0  0  0
    2.8578    0.0000    0.0000 O   0  0  0  0  0  0  0  0  0  0  0  0
    3.5723    0.0000    0.0000 O   0  0  0  0  0  0  0  0  0  0  0  0
    3.5723    0.0000    0.0000 C   0  0  0  0  0  0  0  0  0  0  0  0
    2.8578    0.0000    0.0000 C   0  0  0  0  0  0  0  0  0  0  0  0
    2.1433    0.0000    0.0000 C   0  0  0  0  0  0  0  0  0  0  0  0
    1.4289    0.0000    0.0000 C   0  0  0  0  0  0  0  0  0  0  0  0
    1.4289    0.0000    0.0000 C   0  0  0  0  0  0  0  0  0  0  0  0
    0.7145    0.0000    0.0000 C   0  0  0  0  0  0  0  0  0  0  0  0
   -0.7145    0.0000    0.0000 C   0  0  0  0  0  0  0  0  0  0  0  0
   -0.0000    0.0000    0.0000 O   0  0  0  0  0  0  0  0  0  0  0  0
   -1.4289    0.0000    0.0000 C   0  0  0  0  0  0  0  0  0  0  0  0
   -1.4289    0.0000    0.0000 O   0  0  0  0  0  0  0  0  0  0  0  0
   -2.1433    0.0000    0.0000 C   0  0  0  0  0  0  0  0  0  0  0  0
   -2.8578    0.0000    0.0000 O   0  0  0  0  0  0  0  0  0  0  0  0
  1  2  1  0      
  2  3  1  0      
  3  4  1  0      
  4  5  1  0      
  5  6  1  0      
  6  7  1  0      
  7  8  1  0      
  8  9  1  0      
  9 10  2  0      
 10 11  1  0      
 11 12  2  0      
 11 13  1  0      
 13 14  1  0      
 14 15  1  0      
 15 16  2  0      
 10 16  1  0      
 16 17  1  0      
  7 17  1  0      
 17 18  1  0      
 18 19  2  0      
  5 20  1  0      
 20 21  1  0      
 20 22  1  0      
 22 23  1  0      
 22 24  1  0      
  3 24  1  0      
 24 25  1  0      
M  END
>  <Bioactivity>
Extracted from Gentiana manshurica Kitag.;Suitability:Water,methanol,ethanol;Store the product in sealed,cool and dry condition

>  <CAS>
20831-76-9

>  <Col>
9

>  <Formula>
C16H20O9

>  <ID>
T2770

>  <Index>
478

>  <MOLENAME>
Gentiopicrin

>  <MolWt>
356.33

>  <Pathways>
Others

>  <Plate>
PLATE 006

>  <QR code>
1151480235

>  <Receptor>
Others

>  <Reference>
1. Zhang K, et al. Int J Nanomedicine. 2013;8:3227-39.

>  <Row>
H

>  <SMILES>
OCC1OC(OC2OC=C3C(=O)OCC=C3C2C=C)C(O)C(O)C1O

>  <Target>
Others

>  <Weight>
10.4mg

$$$$
Lab-1.sdf
  ChemDraw05232018482D

 15 16  0  0  0  0  0  0  0  0999 V2000
   -2.1433    0.0000    0.0000 C   0  0  0  0  0  0  0  0  0  0  0  0
   -2.1433    0.0000    0.0000 O   0  0  0  0  0  0  0  0  0  0  0  0
   -1.4289    0.0000    0.0000 C   0  0  0  0  0  0  0  0  0  0  0  0
   -1.4289    0.0000    0.0000 C   0  0  0  0  0  0  0  0  0  0  0  0
   -2.1433    0.0000    0.0000 O   0  0  0  0  0  0  0  0  0  0  0  0
   -0.7145    0.0000    0.0000 C   0  0  0  0  0  0  0  0  0  0  0  0
   -0.7145    0.0000    0.0000 O   0  0  0  0  0  0  0  0  0  0  0  0
   -0.0000    0.0000    0.0000 C   0  0  0  0  0  0  0  0  0  0  0  0
    0.7145    0.0000    0.0000 O   0  0  0  0  0  0  0  0  0  0  0  0
    1.4290    0.0000    0.0000 C   0  0  0  0  0  0  0  0  0  0  0  0
    2.1433    0.0000    0.0000 O   0  0  0  0  0  0  0  0  0  0  0  0
    1.4290    0.0000    0.0000 C   0  0  0  0  0  0  0  0  0  0  0  0
    0.7145    0.0000    0.0000 C   0  0  0  0  0  0  0  0  0  0  0  0
   -0.0000    0.0000    0.0000 C   0  0  0  0  0  0  0  0  0  0  0  0
   -0.7145    0.0000    0.0000 C   0  0  0  0  0  0  0  0  0  0  0  0
  1  2  1  0      
  2  3  1  0      
  3  4  2  0      
  4  5  1  0      
  4  6  1  0      
  6  7  1  0      
  6  8  2  0      
  8  9  1  0      
  9 10  1  0      
 10 11  2  0      
 10 12  1  0      
 12 13  2  0      
 13 14  1  0      
  8 14  1  0      
 14 15  2  0      
  3 15  1  0      
M  END
>  <Bioactivity>
Extracted from Fraxinus brngeana DC.;Suitability:Alcohol and hydrochloric acid;Store the product in sealed,cool and dry condition

>  <CAS>
574-84-5

>  <Col>
10

>  <Formula>
C10H8O5

>  <ID>
T2909

>  <Index>
479

>  <MOLENAME>
Fraxetin

>  <MolWt>
208.17

>  <Pathways>
Others

>  <Plate>
PLATE 006

>  <QR code>
1151480236

>  <Receptor>
Others

>  <Reference>
1. Wang H, et al. Mol Med Rep. 2014 Nov;10(5):2341-5. 

>  <Row>
H

>  <SMILES>
COC1=C(O)C(O)=C2OC(=O)C=CC2=C1

>  <Target>
Others

>  <Weight>
10.3mg

$$$$
Lab-1.sdf
  ChemDraw05232018482D

 12 13  0  0  0  0  0  0  0  0999 V2000
    1.1770    0.0000    0.0000 C   0  0  0  0  0  0  0  0  0  0  0  0
    1.1770    0.0000    0.0000 N   0  0  0  0  0  0  0  0  0  0  0  0
    1.8444    0.0000    0.0000 C   0  0  0  0  0  0  0  0  0  0  0  0
    1.5895    0.0000    0.0000 C   0  0  0  0  0  0  0  0  0  0  0  0
    0.7645    0.0000    0.0000 C   0  0  0  0  0  0  0  0  0  0  0  0
    0.5095    0.0000    0.0000 C   0  0  0  0  0  0  0  0  0  0  0  0
   -0.2752    0.0000    0.0000 C   0  0  0  0  0  0  0  0  0  0  0  0
   -0.8883    0.0000    0.0000 C   0  0  0  0  0  0  0  0  0  0  0  0
   -1.6729    0.0000    0.0000 N   0  0  0  0  0  0  0  0  0  0  0  0
   -1.8444    0.0000    0.0000 C   0  0  0  0  0  0  0  0  0  0  0  0
   -1.2313    0.0000    0.0000 C   0  0  0  0  0  0  0  0  0  0  0  0
   -0.4467    0.0000    0.0000 C   0  0  0  0  0  0  0  0  0  0  0  0
  1  2  1  0      
  2  3  1  0      
  3  4  1  0      
  4  5  1  0      
  5  6  1  0      
  2  6  1  0      
  6  7  1  0      
  7  8  2  0      
  8  9  1  0      
  9 10  2  0      
 10 11  1  0      
 11 12  2  0      
  7 12  1  0      
M  END
>  <Bioactivity>
Extracted from Nicotiana sanderae;Store the product in sealed, cool and dry condition.

>  <CAS>
54-11-5

>  <Col>
11

>  <Formula>
C10H14N2

>  <ID>
T2892

>  <Index>
480

>  <MOLENAME>
Nicotine

>  <MolWt>
162.23

>  <Pathways>
Neuroscience

>  <Plate>
PLATE 006

>  <QR code>
1151480237

>  <Receptor>
Nicotinic AChR 

>  <Reference>
1. Manuela R, Mario M, Vincenzo R, Filippo R. Life Sci. 2015 Aug 15;135:49-54. 

>  <Row>
H

>  <SMILES>
CN1CCCC1C1=CN=CC=C1

>  <Target>
AChR agonist

>  <Weight>
10.3mg

$$$$
Lab-1.sdf
  ChemDraw05232018482D

 65 71  0  0  0  0  0  0  0  0999 V2000
    0.3509    0.0000    0.0000 C   0  0  0  0  0  0  0  0  0  0  0  0
   -0.4663    0.0000    0.0000 C   0  0  0  0  0  0  0  0  0  0  0  0
   -0.9727    0.0000    0.0000 C   0  0  0  0  0  0  0  0  0  0  0  0
   -0.7772    0.0000    0.0000 C   0  0  0  0  0  0  0  0  0  0  0  0
   -1.5945    0.0000    0.0000 C   0  0  0  0  0  0  0  0  0  0  0  0
   -1.9054    0.0000    0.0000 C   0  0  0  0  0  0  0  0  0  0  0  0
   -1.3990    0.0000    0.0000 C   0  0  0  0  0  0  0  0  0  0  0  0
   -0.7477    0.0000    0.0000 C   0  0  0  0  0  0  0  0  0  0  0  0
   -2.0503    0.0000    0.0000 O   0  0  0  0  0  0  0  0  0  0  0  0
   -2.8146    0.0000    0.0000 C   0  0  0  0  0  0  0  0  0  0  0  0
   -3.4659    0.0000    0.0000 O   0  0  0  0  0  0  0  0  0  0  0  0
   -4.2301    0.0000    0.0000 C   0  0  0  0  0  0  0  0  0  0  0  0
   -4.8814    0.0000    0.0000 C   0  0  0  0  0  0  0  0  0  0  0  0
   -5.6456    0.0000    0.0000 O   0  0  0  0  0  0  0  0  0  0  0  0
   -4.3430    0.0000    0.0000 C   0  0  0  0  0  0  0  0  0  0  0  0
   -5.1072    0.0000    0.0000 O   0  0  0  0  0  0  0  0  0  0  0  0
   -3.6916    0.0000    0.0000 C   0  0  0  0  0  0  0  0  0  0  0  0
   -3.8045    0.0000    0.0000 O   0  0  0  0  0  0  0  0  0  0  0  0
   -2.9275    0.0000    0.0000 C   0  0  0  0  0  0  0  0  0  0  0  0
   -2.2761    0.0000    0.0000 O   0  0  0  0  0  0  0  0  0  0  0  0
   -0.8926    0.0000    0.0000 C   0  0  0  0  0  0  0  0  0  0  0  0
   -1.1220    0.0000    0.0000 C   0  0  0  0  0  0  0  0  0  0  0  0
   -0.4391    0.0000    0.0000 C   0  0  0  0  0  0  0  0  0  0  0  0
    0.2122    0.0000    0.0000 C   0  0  0  0  0  0  0  0  0  0  0  0
    0.4099    0.0000    0.0000 C   0  0  0  0  0  0  0  0  0  0  0  0
   -0.0681    0.0000    0.0000 C   0  0  0  0  0  0  0  0  0  0  0  0
    0.4637    0.0000    0.0000 C   0  0  0  0  0  0  0  0  0  0  0  0
    0.1834    0.0000    0.0000 O   0  0  0  0  0  0  0  0  0  0  0  0
    1.2759    0.0000    0.0000 C   0  0  0  0  0  0  0  0  0  0  0  0
    1.5562    0.0000    0.0000 C   0  0  0  0  0  0  0  0  0  0  0  0
    2.3684    0.0000    0.0000 C   0  0  0  0  0  0  0  0  0  0  0  0
    2.0880    0.0000    0.0000 C   0  0  0  0  0  0  0  0  0  0  0  0
    2.9002    0.0000    0.0000 C   0  0  0  0  0  0  0  0  0  0  0  0
    3.7123    0.0000    0.0000 C   0  0  0  0  0  0  0  0  0  0  0  0
    3.9926    0.0000    0.0000 C   0  0  0  0  0  0  0  0  0  0  0  0
    4.8047    0.0000    0.0000 O   0  0  0  0  0  0  0  0  0  0  0  0
    3.4608    0.0000    0.0000 C   0  0  0  0  0  0  0  0  0  0  0  0
    3.1768    0.0000    0.0000 C   0  0  0  0  0  0  0  0  0  0  0  0
    4.1743    0.0000    0.0000 C   0  0  0  0  0  0  0  0  0  0  0  0
    2.6487    0.0000    0.0000 C   0  0  0  0  0  0  0  0  0  0  0  0
    2.1168    0.0000    0.0000 C   0  0  0  0  0  0  0  0  0  0  0  0
    1.3046    0.0000    0.0000 C   0  0  0  0  0  0  0  0  0  0  0  0
    1.0243    0.0000    0.0000 C   0  0  0  0  0  0  0  0  0  0  0  0
    0.7134    0.0000    0.0000 C   0  0  0  0  0  0  0  0  0  0  0  0
    2.3972    0.0000    0.0000 O   0  0  0  0  0  0  0  0  0  0  0  0
    1.8652    0.0000    0.0000 C   0  0  0  0  0  0  0  0  0  0  0  0
    1.0531    0.0000    0.0000 O   0  0  0  0  0  0  0  0  0  0  0  0
    0.5213    0.0000    0.0000 C   0  0  0  0  0  0  0  0  0  0  0  0
   -0.2908    0.0000    0.0000 C   0  0  0  0  0  0  0  0  0  0  0  0
   -0.8226    0.0000    0.0000 O   0  0  0  0  0  0  0  0  0  0  0  0
    0.8016    0.0000    0.0000 C   0  0  0  0  0  0  0  0  0  0  0  0
    0.2698    0.0000    0.0000 O   0  0  0  0  0  0  0  0  0  0  0  0
    1.6137    0.0000    0.0000 C   0  0  0  0  0  0  0  0  0  0  0  0
    1.8940    0.0000    0.0000 O   0  0  0  0  0  0  0  0  0  0  0  0
    2.1455    0.0000    0.0000 C   0  0  0  0  0  0  0  0  0  0  0  0
    2.9578    0.0000    0.0000 O   0  0  0  0  0  0  0  0  0  0  0  0
    3.4896    0.0000    0.0000 C   0  0  0  0  0  0  0  0  0  0  0  0
    3.2093    0.0000    0.0000 O   0  0  0  0  0  0  0  0  0  0  0  0
    3.7411    0.0000    0.0000 C   0  0  0  0  0  0  0  0  0  0  0  0
    4.5532    0.0000    0.0000 C   0  0  0  0  0  0  0  0  0  0  0  0
    5.0850    0.0000    0.0000 O   0  0  0  0  0  0  0  0  0  0  0  0
    4.8335    0.0000    0.0000 C   0  0  0  0  0  0  0  0  0  0  0  0
    5.6456    0.0000    0.0000 O   0  0  0  0  0  0  0  0  0  0  0  0
    4.3017    0.0000    0.0000 C   0  0  0  0  0  0  0  0  0  0  0  0
    4.5820    0.0000    0.0000 O   0  0  0  0  0  0  0  0  0  0  0  0
  1  2  1  0      
  2  3  1  0      
  2  4  2  0      
  4  5  1  0      
  5  6  1  0      
  6  7  1  0      
  7  8  1  0      
  7  9  1  0      
  9 10  1  0      
 10 11  1  0      
 11 12  1  0      
 12 13  1  0      
 13 14  1  0      
 12 15  1  0      
 15 16  1  0      
 15 17  1  0      
 17 18  1  0      
 17 19  1  0      
 10 19  1  0      
 19 20  1  0      
  7 21  1  0      
 21 22  1  0      
 22 23  1  0      
 23 24  1  0      
 24 25  1  0      
 24 26  1  0      
 21 26  1  0      
 26 27  1  0      
 27 28  1  0      
 27 29  1  0      
 29 30  1  0      
 30 31  1  0      
 31 32  1  0      
 31 33  1  0      
 33 34  1  0      
 34 35  1  0      
 35 36  1  0      
 35 37  1  0      
 37 38  1  0      
 37 39  1  0      
 37 40  1  0      
 31 40  1  0      
 40 41  1  0      
 41 42  1  0      
 42 43  1  0      
 24 43  1  0      
 30 43  1  0      
 43 44  1  0      
 41 45  1  0      
 45 46  1  0      
 46 47  1  0      
 47 48  1  0      
 48 49  1  0      
 49 50  1  0      
 48 51  1  0      
 51 52  1  0      
 51 53  1  0      
 53 54  1  0      
 53 55  1  0      
 46 55  1  0      
 55 56  1  0      
 56 57  1  0      
 57 58  1  0      
 58 59  1  0      
 59 60  1  0      
 60 61  1  0      
 60 62  1  0      
 62 63  1  0      
 62 64  1  0      
 57 64  1  0      
 64 65  1  0      
M  END
>  <Bioactivity>
Notoginsenoside R1 has been shown to exhibit antooxidant,anti-inflammatory,antiapoptotic,and immune-stimulatory properties.

>  <CAS>
80418-24-2

>  <Col>
2

>  <Formula>
C47H80O18

>  <ID>
T2961

>  <Index>
481

>  <MOLENAME>
Notoginsenoside R1

>  <MolWt>
933.13

>  <Pathways>
MAPK Signaling

>  <Plate>
PLATE 007

>  <QR code>
1151479553

>  <Receptor>
ERK1/2

>  <Reference>
1. Xu Y, et al. Am J Chin Med. 2014;42(4):799-816. 

>  <Row>
A

>  <SMILES>
CC(C)=CCCC(C)(OC1OC(CO)C(O)C(O)C1O)C1CCC2(C)C1C(O)CC1C3(C)CCC(O)C(C)(C)C3C(CC21C)OC1OC(CO)C(O)C(O)C1OC1OCC(O)C(O)C1O

>  <Target>
ERK inhibitor

>  <Weight>
10.2mg

$$$$
Lab-1.sdf
  ChemDraw05232018482D

 14 16  0  0  0  0  0  0  0  0999 V2000
    1.9074    0.0000    0.0000 O   0  0  0  0  0  0  0  0  0  0  0  0
    1.4728    0.0000    0.0000 C   0  0  0  0  0  0  0  0  0  0  0  0
    0.6482    0.0000    0.0000 O   0  0  0  0  0  0  0  0  0  0  0  0
    0.2136    0.0000    0.0000 C   0  0  0  0  0  0  0  0  0  0  0  0
    0.6036    0.0000    0.0000 C   0  0  0  0  0  0  0  0  0  0  0  0
    0.1690    0.0000    0.0000 C   0  0  0  0  0  0  0  0  0  0  0  0
   -0.6556    0.0000    0.0000 C   0  0  0  0  0  0  0  0  0  0  0  0
   -1.0456    0.0000    0.0000 C   0  0  0  0  0  0  0  0  0  0  0  0
   -0.6110    0.0000    0.0000 C   0  0  0  0  0  0  0  0  0  0  0  0
   -1.1436    0.0000    0.0000 C   0  0  0  0  0  0  0  0  0  0  0  0
   -1.9074    0.0000    0.0000 C   0  0  0  0  0  0  0  0  0  0  0  0
   -1.8468    0.0000    0.0000 O   0  0  0  0  0  0  0  0  0  0  0  0
    1.4282    0.0000    0.0000 C   0  0  0  0  0  0  0  0  0  0  0  0
    1.8628    0.0000    0.0000 C   0  0  0  0  0  0  0  0  0  0  0  0
  1  2  2  0      
  2  3  1  0      
  3  4  1  0      
  4  5  2  0      
  5  6  1  0      
  6  7  2  0      
  7  8  1  0      
  8  9  2  0      
  4  9  1  0      
  9 10  1  0      
 10 11  2  0      
 11 12  1  0      
  8 12  1  0      
  5 13  1  0      
 13 14  2  0      
  2 14  1  0      
M  END
>  <Bioactivity>
Angelicin, a furocoumarin naturally occurring tricyclic aromatic compound, structurally related to psoralens, is reported to have anti-Y, antiviral, anti-inflammatory activity.

>  <CAS>
523-50-2

>  <Col>
3

>  <Formula>
C11H6O3

>  <ID>
T2875

>  <Index>
482

>  <MOLENAME>
Isopsoralen

>  <MolWt>
186.17

>  <Pathways>
Others

>  <Plate>
PLATE 007

>  <QR code>
1151479552

>  <Receptor>
Others

>  <Reference>
1. Lu H, et al. Afr Health Sci. 2014 Sep;14(3):641-7. 

>  <Row>
A

>  <SMILES>
O=C1OC2=C(C=CC3=C2C=CO3)C=C1

>  <Target>
Others

>  <Weight>
10.4mg

$$$$
Lab-1.sdf
  ChemDraw05232018482D

 33 37  0  0  0  0  0  0  0  0999 V2000
   -0.4138    0.0000    0.0000 C   0  0  0  0  0  0  0  0  0  0  0  0
   -0.6115    0.0000    0.0000 C   0  0  0  0  0  0  0  0  0  0  0  0
   -1.2628    0.0000    0.0000 C   0  0  0  0  0  0  0  0  0  0  0  0
   -1.9457    0.0000    0.0000 C   0  0  0  0  0  0  0  0  0  0  0  0
   -1.7163    0.0000    0.0000 C   0  0  0  0  0  0  0  0  0  0  0  0
   -0.8918    0.0000    0.0000 C   0  0  0  0  0  0  0  0  0  0  0  0
   -0.3600    0.0000    0.0000 C   0  0  0  0  0  0  0  0  0  0  0  0
   -0.6403    0.0000    0.0000 O   0  0  0  0  0  0  0  0  0  0  0  0
    0.4522    0.0000    0.0000 C   0  0  0  0  0  0  0  0  0  0  0  0
    0.7325    0.0000    0.0000 C   0  0  0  0  0  0  0  0  0  0  0  0
    1.5446    0.0000    0.0000 C   0  0  0  0  0  0  0  0  0  0  0  0
    1.2643    0.0000    0.0000 C   0  0  0  0  0  0  0  0  0  0  0  0
    2.0764    0.0000    0.0000 C   0  0  0  0  0  0  0  0  0  0  0  0
    2.8885    0.0000    0.0000 C   0  0  0  0  0  0  0  0  0  0  0  0
    3.1688    0.0000    0.0000 C   0  0  0  0  0  0  0  0  0  0  0  0
    3.9809    0.0000    0.0000 O   0  0  0  0  0  0  0  0  0  0  0  0
    2.6370    0.0000    0.0000 C   0  0  0  0  0  0  0  0  0  0  0  0
    3.3505    0.0000    0.0000 C   0  0  0  0  0  0  0  0  0  0  0  0
    2.3530    0.0000    0.0000 C   0  0  0  0  0  0  0  0  0  0  0  0
    1.8249    0.0000    0.0000 C   0  0  0  0  0  0  0  0  0  0  0  0
    1.2931    0.0000    0.0000 C   0  0  0  0  0  0  0  0  0  0  0  0
    0.4809    0.0000    0.0000 C   0  0  0  0  0  0  0  0  0  0  0  0
    0.2006    0.0000    0.0000 C   0  0  0  0  0  0  0  0  0  0  0  0
   -0.1103    0.0000    0.0000 C   0  0  0  0  0  0  0  0  0  0  0  0
   -2.2227    0.0000    0.0000 C   0  0  0  0  0  0  0  0  0  0  0  0
   -1.4933    0.0000    0.0000 C   0  0  0  0  0  0  0  0  0  0  0  0
   -2.7762    0.0000    0.0000 C   0  0  0  0  0  0  0  0  0  0  0  0
   -3.5828    0.0000    0.0000 C   0  0  0  0  0  0  0  0  0  0  0  0
   -3.8358    0.0000    0.0000 C   0  0  0  0  0  0  0  0  0  0  0  0
   -3.2823    0.0000    0.0000 C   0  0  0  0  0  0  0  0  0  0  0  0
   -3.9809    0.0000    0.0000 C   0  0  0  0  0  0  0  0  0  0  0  0
   -2.9714    0.0000    0.0000 C   0  0  0  0  0  0  0  0  0  0  0  0
   -2.4757    0.0000    0.0000 O   0  0  0  0  0  0  0  0  0  0  0  0
  1  2  1  0      
  2  3  1  0      
  3  4  1  0      
  4  5  1  0      
  5  6  1  0      
  2  6  1  0      
  6  7  1  0      
  7  8  1  0      
  7  9  1  0      
  9 10  1  0      
 10 11  1  0      
 11 12  1  0      
 11 13  1  0      
 13 14  1  0      
 14 15  1  0      
 15 16  1  0      
 15 17  1  0      
 17 18  1  0      
 17 19  1  0      
 17 20  1  0      
 11 20  1  0      
 20 21  1  0      
 21 22  1  0      
 22 23  1  0      
  2 23  1  0      
 10 23  1  0      
 23 24  1  0      
  5 25  1  0      
 25 26  1  0      
 25 27  1  0      
 27 28  1  0      
 28 29  1  0      
 29 30  1  0      
 30 31  1  0      
 30 32  1  0      
 30 33  1  0      
 25 33  1  0      
M  END
>  <Bioactivity>
 Panaxadiol is a novel antitumor agent extracted from the Chinese medical herb Panax ginseng.

>  <CAS>
19666-76-3

>  <Col>
4

>  <Formula>
C30H52O3

>  <ID>
T2763

>  <Index>
483

>  <MOLENAME>
Panaxadiol

>  <MolWt>
460.73

>  <Pathways>
Others

>  <Plate>
PLATE 007

>  <QR code>
1151479551

>  <Receptor>
Others

>  <Reference>
1. Lin X, et al. Exp Hematol. 2015 May;43(5):364-73. 

>  <Row>
A

>  <SMILES>
CC12CCC(C1C(O)CC1C3(C)CCC(O)C(C)(C)C3CCC21C)C1(C)CCCC(C)(C)O1

>  <Target>
Others

>  <Weight>
10.3mg

$$$$
Lab-1.sdf
  ChemDraw05232018482D

 13 14  0  0  0  0  0  0  0  0999 V2000
   -2.1433    0.0000    0.0000 O   0  0  0  0  0  0  0  0  0  0  0  0
   -1.4290    0.0000    0.0000 C   0  0  0  0  0  0  0  0  0  0  0  0
   -0.7145    0.0000    0.0000 C   0  0  0  0  0  0  0  0  0  0  0  0
   -0.7145    0.0000    0.0000 O   0  0  0  0  0  0  0  0  0  0  0  0
   -0.0000    0.0000    0.0000 C   0  0  0  0  0  0  0  0  0  0  0  0
   -0.0000    0.0000    0.0000 C   0  0  0  0  0  0  0  0  0  0  0  0
    0.7144    0.0000    0.0000 C   0  0  0  0  0  0  0  0  0  0  0  0
    1.4289    0.0000    0.0000 C   0  0  0  0  0  0  0  0  0  0  0  0
    1.4289    0.0000    0.0000 C   0  0  0  0  0  0  0  0  0  0  0  0
    2.1433    0.0000    0.0000 O   0  0  0  0  0  0  0  0  0  0  0  0
    0.7144    0.0000    0.0000 O   0  0  0  0  0  0  0  0  0  0  0  0
   -0.7145    0.0000    0.0000 C   0  0  0  0  0  0  0  0  0  0  0  0
   -1.4290    0.0000    0.0000 C   0  0  0  0  0  0  0  0  0  0  0  0
  1  2  1  0      
  2  3  2  0      
  3  4  1  0      
  3  5  1  0      
  5  6  2  0      
  6  7  1  0      
  7  8  2  0      
  8  9  1  0      
  9 10  2  0      
  9 11  1  0      
  5 11  1  0      
  6 12  1  0      
 12 13  2  0      
  2 13  1  0      
M  END
>  <Bioactivity>
Daphnetin, a natural coumarin derivative, is a protein kinase inhibitor, inhibits EGFR, PKA and PKC with IC50 of 7.67 ¦ÌM, 9.33 ¦ÌM and 25.01 ¦ÌM, respectively, also known to exhibit anti-inflammatory
 and anti-oxidant activities.

>  <CAS>
486-35-1

>  <Col>
5

>  <Formula>
C9H6O4

>  <ID>
T2851

>  <Index>
484

>  <MOLENAME>
Daphnetin

>  <MolWt>
178.14

>  <Pathways>
Tyrosine Kinase/Adaptors; Cell Cycle/Checkpoint

>  <Plate>
PLATE 007

>  <QR code>
1151479550

>  <Receptor>
EGFR; PKA; PKC

>  <Reference>
1. Yang EB, et al. Biochem Biophys Res Commun, 1999, 260(3), 682-685.

>  <Row>
A

>  <SMILES>
OC1=C(O)C2=C(C=CC(=O)O2)C=C1

>  <Target>
EGFR inhibitor; PKC inhibitor

>  <Weight>
10.4mg

$$$$
Lab-1.sdf
  ChemDraw05232018482D

 28 30  0  0  0  0  0  0  0  0999 V2000
    3.5814    0.0000    0.0000 C   0  0  0  0  0  0  0  0  0  0  0  0
    2.8799    0.0000    0.0000 O   0  0  0  0  0  0  0  0  0  0  0  0
    2.0060    0.0000    0.0000 C   0  0  0  0  0  0  0  0  0  0  0  0
    1.4227    0.0000    0.0000 C   0  0  0  0  0  0  0  0  0  0  0  0
    1.8903    0.0000    0.0000 O   0  0  0  0  0  0  0  0  0  0  0  0
    2.5847    0.0000    0.0000 C   0  0  0  0  0  0  0  0  0  0  0  0
    0.6258    0.0000    0.0000 C   0  0  0  0  0  0  0  0  0  0  0  0
    0.3293    0.0000    0.0000 O   0  0  0  0  0  0  0  0  0  0  0  0
    0.5102    0.0000    0.0000 C   0  0  0  0  0  0  0  0  0  0  0  0
    0.4122    0.0000    0.0000 C   0  0  0  0  0  0  0  0  0  0  0  0
    0.9956    0.0000    0.0000 C   0  0  0  0  0  0  0  0  0  0  0  0
    0.9956    0.0000    0.0000 C   0  0  0  0  0  0  0  0  0  0  0  0
    0.4122    0.0000    0.0000 C   0  0  0  0  0  0  0  0  0  0  0  0
   -0.4127    0.0000    0.0000 C   0  0  0  0  0  0  0  0  0  0  0  0
   -0.9960    0.0000    0.0000 C   0  0  0  0  0  0  0  0  0  0  0  0
   -0.9960    0.0000    0.0000 C   0  0  0  0  0  0  0  0  0  0  0  0
   -1.7929    0.0000    0.0000 C   0  0  0  0  0  0  0  0  0  0  0  0
   -2.0064    0.0000    0.0000 C   0  0  0  0  0  0  0  0  0  0  0  0
   -2.8788    0.0000    0.0000 O   0  0  0  0  0  0  0  0  0  0  0  0
   -3.5814    0.0000    0.0000 C   0  0  0  0  0  0  0  0  0  0  0  0
   -1.4231    0.0000    0.0000 C   0  0  0  0  0  0  0  0  0  0  0  0
   -1.8633    0.0000    0.0000 O   0  0  0  0  0  0  0  0  0  0  0  0
   -2.5610    0.0000    0.0000 C   0  0  0  0  0  0  0  0  0  0  0  0
   -0.6262    0.0000    0.0000 C   0  0  0  0  0  0  0  0  0  0  0  0
   -0.0572    0.0000    0.0000 O   0  0  0  0  0  0  0  0  0  0  0  0
   -0.2697    0.0000    0.0000 C   0  0  0  0  0  0  0  0  0  0  0  0
   -0.4127    0.0000    0.0000 C   0  0  0  0  0  0  0  0  0  0  0  0
    1.7925    0.0000    0.0000 C   0  0  0  0  0  0  0  0  0  0  0  0
  1  2  1  0      
  2  3  1  0      
  3  4  2  0      
  4  5  1  0      
  5  6  1  0      
  4  7  1  0      
  7  8  1  0      
  8  9  1  0      
  7 10  2  0      
 10 11  1  0      
 11 12  1  0      
 12 13  1  0      
 13 14  1  0      
 14 15  1  0      
 15 16  1  0      
 16 17  2  0      
 17 18  1  0      
 18 19  1  0      
 19 20  1  0      
 18 21  2  0      
 21 22  1  0      
 22 23  1  0      
 21 24  1  0      
 24 25  1  0      
 25 26  1  0      
 24 27  2  0      
 10 27  1  0      
 16 27  1  0      
 11 28  2  0      
  3 28  1  0      
M  END
>  <Bioactivity>
Schisandrin A is a main effective components extracted from the oriental medicine Schisandra chinensis which is traditionally used to enhance mental and intellectual function.

>  <CAS>
61281-38-7

>  <Col>
6

>  <Formula>
C24H32O6

>  <ID>
T2926

>  <Index>
485

>  <MOLENAME>
Schizandrin A

>  <MolWt>
416.51

>  <Pathways>
Others

>  <Plate>
PLATE 007

>  <QR code>
1151479549

>  <Receptor>
Others

>  <Reference>
1. Wang CP, et al. J Physiol Biochem. 2014 Sep;70(3):735-47.

>  <Row>
A

>  <SMILES>
COC1=C(OC)C(OC)=C2C(CCCCC3=CC(OC)=C(OC)C(OC)=C23)=C1

>  <Target>
Others

>  <Weight>
10.2mg

$$$$
Lab-1.sdf
  ChemDraw05232018482D

 19 21  0  0  0  0  0  0  0  0999 V2000
    1.2299    0.0000    0.0000 C   0  0  0  0  0  0  0  0  0  0  0  0
    1.2299    0.0000    0.0000 N   0  0  0  0  0  0  0  0  0  0  0  0
    0.5154    0.0000    0.0000 C   0  0  0  0  0  0  0  0  0  0  0  0
    0.5154    0.0000    0.0000 C   0  0  0  0  0  0  0  0  0  0  0  0
   -0.2693    0.0000    0.0000 N   0  0  0  0  0  0  0  0  0  0  0  0
   -0.5243    0.0000    0.0000 C   0  0  0  0  0  0  0  0  0  0  0  0
   -1.3312    0.0000    0.0000 C   0  0  0  0  0  0  0  0  0  0  0  0
   -1.9443    0.0000    0.0000 O   0  0  0  0  0  0  0  0  0  0  0  0
   -2.6588    0.0000    0.0000 C   0  0  0  0  0  0  0  0  0  0  0  0
   -2.4873    0.0000    0.0000 C   0  0  0  0  0  0  0  0  0  0  0  0
   -1.6668    0.0000    0.0000 O   0  0  0  0  0  0  0  0  0  0  0  0
   -0.7542    0.0000    0.0000 C   0  0  0  0  0  0  0  0  0  0  0  0
   -0.2693    0.0000    0.0000 N   0  0  0  0  0  0  0  0  0  0  0  0
    1.2299    0.0000    0.0000 C   0  0  0  0  0  0  0  0  0  0  0  0
    1.2299    0.0000    0.0000 O   0  0  0  0  0  0  0  0  0  0  0  0
    1.9443    0.0000    0.0000 N   0  0  0  0  0  0  0  0  0  0  0  0
    2.6588    0.0000    0.0000 C   0  0  0  0  0  0  0  0  0  0  0  0
    1.9443    0.0000    0.0000 C   0  0  0  0  0  0  0  0  0  0  0  0
    2.6588    0.0000    0.0000 O   0  0  0  0  0  0  0  0  0  0  0  0
  1  2  1  0      
  2  3  1  0      
  3  4  2  0      
  4  5  1  0      
  5  6  1  0      
  6  7  1  0      
  7  8  1  0      
  8  9  1  0      
  9 10  1  0      
 10 11  1  0      
  7 11  1  0      
  5 12  1  0      
 12 13  2  0      
  3 13  1  0      
  4 14  1  0      
 14 15  2  0      
 14 16  1  0      
 16 17  1  0      
 16 18  1  0      
  2 18  1  0      
 18 19  2  0      
M  END
>  <Bioactivity>
Doxofylline is a phosphodiesterase inhibitor and a xanthine derivative drug for asthma.

>  <CAS>
69975-86-6

>  <Col>
7

>  <Formula>
C11H14N4O4

>  <ID>
T0480

>  <Index>
486

>  <MOLENAME>
Doxofylline

>  <MolWt>
266.26

>  <Pathways>
Metabolism

>  <Plate>
PLATE 007

>  <QR code>
1151479548

>  <Receptor>
PDE

>  <Reference>
1. Shukla D, et al. Expert Opin PharmacOthers, 2009, 10(14), 2343-2356.

>  <Row>
A

>  <SMILES>
CN1C2=C(N(CC3OCCO3)C=N2)C(=O)N(C)C1=O

>  <Target>
PDE inhibitor

>  <Weight>
10.5mg

$$$$
Lab-1.sdf
  ChemDraw05232018482D

 56 61  0  0  0  0  0  0  0  0999 V2000
    0.5022    0.0000    0.0000 C   0  0  0  0  0  0  0  0  0  0  0  0
   -0.3151    0.0000    0.0000 C   0  0  0  0  0  0  0  0  0  0  0  0
   -0.8215    0.0000    0.0000 C   0  0  0  0  0  0  0  0  0  0  0  0
   -0.6260    0.0000    0.0000 C   0  0  0  0  0  0  0  0  0  0  0  0
   -1.4433    0.0000    0.0000 C   0  0  0  0  0  0  0  0  0  0  0  0
   -1.7542    0.0000    0.0000 C   0  0  0  0  0  0  0  0  0  0  0  0
   -1.2478    0.0000    0.0000 C   0  0  0  0  0  0  0  0  0  0  0  0
   -0.5965    0.0000    0.0000 C   0  0  0  0  0  0  0  0  0  0  0  0
   -1.8991    0.0000    0.0000 O   0  0  0  0  0  0  0  0  0  0  0  0
   -2.6633    0.0000    0.0000 C   0  0  0  0  0  0  0  0  0  0  0  0
   -2.7762    0.0000    0.0000 O   0  0  0  0  0  0  0  0  0  0  0  0
   -3.5403    0.0000    0.0000 C   0  0  0  0  0  0  0  0  0  0  0  0
   -3.6532    0.0000    0.0000 C   0  0  0  0  0  0  0  0  0  0  0  0
   -4.4174    0.0000    0.0000 O   0  0  0  0  0  0  0  0  0  0  0  0
   -4.1917    0.0000    0.0000 C   0  0  0  0  0  0  0  0  0  0  0  0
   -4.9560    0.0000    0.0000 O   0  0  0  0  0  0  0  0  0  0  0  0
   -4.0788    0.0000    0.0000 C   0  0  0  0  0  0  0  0  0  0  0  0
   -4.7302    0.0000    0.0000 O   0  0  0  0  0  0  0  0  0  0  0  0
   -3.3146    0.0000    0.0000 C   0  0  0  0  0  0  0  0  0  0  0  0
   -3.2018    0.0000    0.0000 O   0  0  0  0  0  0  0  0  0  0  0  0
   -0.7414    0.0000    0.0000 C   0  0  0  0  0  0  0  0  0  0  0  0
   -0.9708    0.0000    0.0000 C   0  0  0  0  0  0  0  0  0  0  0  0
   -0.2879    0.0000    0.0000 C   0  0  0  0  0  0  0  0  0  0  0  0
    0.3635    0.0000    0.0000 C   0  0  0  0  0  0  0  0  0  0  0  0
    0.5612    0.0000    0.0000 C   0  0  0  0  0  0  0  0  0  0  0  0
    0.0832    0.0000    0.0000 C   0  0  0  0  0  0  0  0  0  0  0  0
    0.6150    0.0000    0.0000 C   0  0  0  0  0  0  0  0  0  0  0  0
    0.3347    0.0000    0.0000 O   0  0  0  0  0  0  0  0  0  0  0  0
    1.4272    0.0000    0.0000 C   0  0  0  0  0  0  0  0  0  0  0  0
    1.7075    0.0000    0.0000 C   0  0  0  0  0  0  0  0  0  0  0  0
    2.5196    0.0000    0.0000 C   0  0  0  0  0  0  0  0  0  0  0  0
    2.2393    0.0000    0.0000 C   0  0  0  0  0  0  0  0  0  0  0  0
    3.0514    0.0000    0.0000 C   0  0  0  0  0  0  0  0  0  0  0  0
    3.8635    0.0000    0.0000 C   0  0  0  0  0  0  0  0  0  0  0  0
    4.1438    0.0000    0.0000 C   0  0  0  0  0  0  0  0  0  0  0  0
    4.9560    0.0000    0.0000 O   0  0  0  0  0  0  0  0  0  0  0  0
    3.6120    0.0000    0.0000 C   0  0  0  0  0  0  0  0  0  0  0  0
    4.3255    0.0000    0.0000 C   0  0  0  0  0  0  0  0  0  0  0  0
    3.3280    0.0000    0.0000 C   0  0  0  0  0  0  0  0  0  0  0  0
    2.7999    0.0000    0.0000 C   0  0  0  0  0  0  0  0  0  0  0  0
    2.2681    0.0000    0.0000 C   0  0  0  0  0  0  0  0  0  0  0  0
    1.4559    0.0000    0.0000 C   0  0  0  0  0  0  0  0  0  0  0  0
    1.1756    0.0000    0.0000 C   0  0  0  0  0  0  0  0  0  0  0  0
    0.8647    0.0000    0.0000 C   0  0  0  0  0  0  0  0  0  0  0  0
    2.5484    0.0000    0.0000 O   0  0  0  0  0  0  0  0  0  0  0  0
    2.0165    0.0000    0.0000 C   0  0  0  0  0  0  0  0  0  0  0  0
    2.2968    0.0000    0.0000 O   0  0  0  0  0  0  0  0  0  0  0  0
    1.7650    0.0000    0.0000 C   0  0  0  0  0  0  0  0  0  0  0  0
    2.0453    0.0000    0.0000 C   0  0  0  0  0  0  0  0  0  0  0  0
    2.8574    0.0000    0.0000 O   0  0  0  0  0  0  0  0  0  0  0  0
    0.9529    0.0000    0.0000 C   0  0  0  0  0  0  0  0  0  0  0  0
    0.4211    0.0000    0.0000 O   0  0  0  0  0  0  0  0  0  0  0  0
    0.6726    0.0000    0.0000 C   0  0  0  0  0  0  0  0  0  0  0  0
   -0.1396    0.0000    0.0000 O   0  0  0  0  0  0  0  0  0  0  0  0
    1.2044    0.0000    0.0000 C   0  0  0  0  0  0  0  0  0  0  0  0
    0.9241    0.0000    0.0000 O   0  0  0  0  0  0  0  0  0  0  0  0
  1  2  1  0      
  2  3  1  0      
  2  4  2  0      
  4  5  1  0      
  5  6  1  0      
  6  7  1  0      
  7  8  1  0      
  7  9  1  0      
  9 10  1  0      
 10 11  1  0      
 11 12  1  0      
 12 13  1  0      
 13 14  1  0      
 12 15  1  0      
 15 16  1  0      
 15 17  1  0      
 17 18  1  0      
 17 19  1  0      
 10 19  1  0      
 19 20  1  0      
  7 21  1  0      
 21 22  1  0      
 22 23  1  0      
 23 24  1  0      
 24 25  1  0      
 24 26  1  0      
 21 26  1  0      
 26 27  1  0      
 27 28  1  0      
 27 29  1  0      
 29 30  1  0      
 30 31  1  0      
 31 32  1  0      
 31 33  1  0      
 33 34  1  0      
 34 35  1  0      
 35 36  1  0      
 35 37  1  0      
 37 38  1  0      
 37 39  1  0      
 37 40  1  0      
 31 40  1  0      
 40 41  1  0      
 41 42  1  0      
 42 43  1  0      
 24 43  1  0      
 30 43  1  0      
 43 44  1  0      
 41 45  1  0      
 45 46  1  0      
 46 47  1  0      
 47 48  1  0      
 48 49  1  0      
 49 50  1  0      
 48 51  1  0      
 51 52  1  0      
 51 53  1  0      
 53 54  1  0      
 53 55  1  0      
 46 55  1  0      
 55 56  1  0      
M  END
>  <Bioactivity>
Ginsenoside Rg1 is part of a class of triterpene saponins and steroid glycosides; possess anti-inflammatory and antiY activities.

>  <CAS>
22427-39-0

>  <Col>
8

>  <Formula>
C42H72O14

>  <ID>
T2777

>  <Index>
487

>  <MOLENAME>
Ginsenoside Rg1

>  <MolWt>
801.01

>  <Pathways>
Others

>  <Plate>
PLATE 007

>  <QR code>
1151479547

>  <Receptor>
Others

>  <Reference>
1. Kwok HH, et al. Toxicol Appl Pharmacol. 2015 Sep 15;287(3):276-83.

>  <Row>
A

>  <SMILES>
CC(C)=CCCC(C)(OC1OC(CO)C(O)C(O)C1O)C1CCC2(C)C1C(O)CC1C3(C)CCC(O)C(C)(C)C3C(CC21C)OC1OC(CO)C(O)C(O)C1O

>  <Target>
Others

>  <Weight>
10.3mg

$$$$
Lab-1.sdf
  ChemDraw05232018482D

 21 23  0  0  0  0  0  0  0  0999 V2000
   -2.1434    0.0000    0.0000 C   0  0  0  0  0  0  0  0  0  0  0  0
   -1.4290    0.0000    0.0000 O   0  0  0  0  0  0  0  0  0  0  0  0
   -1.4290    0.0000    0.0000 C   0  0  0  0  0  0  0  0  0  0  0  0
   -2.1434    0.0000    0.0000 C   0  0  0  0  0  0  0  0  0  0  0  0
   -2.8578    0.0000    0.0000 O   0  0  0  0  0  0  0  0  0  0  0  0
   -2.1434    0.0000    0.0000 C   0  0  0  0  0  0  0  0  0  0  0  0
   -1.4290    0.0000    0.0000 C   0  0  0  0  0  0  0  0  0  0  0  0
   -1.4290    0.0000    0.0000 O   0  0  0  0  0  0  0  0  0  0  0  0
   -0.7145    0.0000    0.0000 C   0  0  0  0  0  0  0  0  0  0  0  0
   -0.7145    0.0000    0.0000 C   0  0  0  0  0  0  0  0  0  0  0  0
   -0.0001    0.0000    0.0000 O   0  0  0  0  0  0  0  0  0  0  0  0
    0.7145    0.0000    0.0000 C   0  0  0  0  0  0  0  0  0  0  0  0
    0.7145    0.0000    0.0000 C   0  0  0  0  0  0  0  0  0  0  0  0
   -0.0001    0.0000    0.0000 C   0  0  0  0  0  0  0  0  0  0  0  0
   -0.0001    0.0000    0.0000 O   0  0  0  0  0  0  0  0  0  0  0  0
    1.4289    0.0000    0.0000 C   0  0  0  0  0  0  0  0  0  0  0  0
    1.4289    0.0000    0.0000 C   0  0  0  0  0  0  0  0  0  0  0  0
    2.1434    0.0000    0.0000 C   0  0  0  0  0  0  0  0  0  0  0  0
    2.8578    0.0000    0.0000 C   0  0  0  0  0  0  0  0  0  0  0  0
    2.8578    0.0000    0.0000 C   0  0  0  0  0  0  0  0  0  0  0  0
    2.1434    0.0000    0.0000 C   0  0  0  0  0  0  0  0  0  0  0  0
  1  2  1  0      
  2  3  1  0      
  3  4  2  0      
  4  5  1  0      
  4  6  1  0      
  6  7  2  0      
  7  8  1  0      
  7  9  1  0      
  9 10  2  0      
  3 10  1  0      
 10 11  1  0      
 11 12  1  0      
 12 13  2  0      
 13 14  1  0      
  9 14  1  0      
 14 15  2  0      
 12 16  1  0      
 16 17  2  0      
 17 18  1  0      
 18 19  2  0      
 19 20  1  0      
 20 21  2  0      
 16 21  1  0      
M  END
>  <Bioactivity>
Wogonin is a cell-permeable and orally available flavonoid that displays anti-inflammatory and antiY properties.

>  <CAS>
632-85-9

>  <Col>
9

>  <Formula>
C16H12O5

>  <ID>
T2933

>  <Index>
488

>  <MOLENAME>
Wogonin

>  <MolWt>
284.26

>  <Pathways>
Others

>  <Plate>
PLATE 007

>  <QR code>
1151479546

>  <Receptor>
Others

>  <Reference>
1. Zhao Y, et al. Mol Carcinog. 2015 Jun;54 Suppl 1:E81-93. 

>  <Row>
A

>  <SMILES>
COC1=C(O)C=C(O)C2=C1OC(=CC2=O)C1=CC=CC=C1

>  <Target>
Others

>  <Weight>
10.2mg

$$$$
Lab-1.sdf
  ChemDraw05232018482D

 17 19  0  0  0  0  0  0  0  0999 V2000
   -1.7618    0.0000    0.0000 C   0  0  0  0  0  0  0  0  0  0  0  0
   -1.7618    0.0000    0.0000 C   0  0  0  0  0  0  0  0  0  0  0  0
   -2.4762    0.0000    0.0000 C   0  0  0  0  0  0  0  0  0  0  0  0
   -2.4762    0.0000    0.0000 C   0  0  0  0  0  0  0  0  0  0  0  0
   -1.7618    0.0000    0.0000 C   0  0  0  0  0  0  0  0  0  0  0  0
   -1.0473    0.0000    0.0000 C   0  0  0  0  0  0  0  0  0  0  0  0
   -1.0473    0.0000    0.0000 C   0  0  0  0  0  0  0  0  0  0  0  0
   -0.3328    0.0000    0.0000 C   0  0  0  0  0  0  0  0  0  0  0  0
    0.3817    0.0000    0.0000 C   0  0  0  0  0  0  0  0  0  0  0  0
    1.1663    0.0000    0.0000 O   0  0  0  0  0  0  0  0  0  0  0  0
    1.6512    0.0000    0.0000 C   0  0  0  0  0  0  0  0  0  0  0  0
    2.4762    0.0000    0.0000 O   0  0  0  0  0  0  0  0  0  0  0  0
    1.1663    0.0000    0.0000 C   0  0  0  0  0  0  0  0  0  0  0  0
    1.4212    0.0000    0.0000 C   0  0  0  0  0  0  0  0  0  0  0  0
    0.3817    0.0000    0.0000 C   0  0  0  0  0  0  0  0  0  0  0  0
   -0.3328    0.0000    0.0000 C   0  0  0  0  0  0  0  0  0  0  0  0
   -1.0473    0.0000    0.0000 C   0  0  0  0  0  0  0  0  0  0  0  0
  1  2  1  0      
  2  3  1  0      
  3  4  1  0      
  4  5  1  0      
  5  6  1  0      
  6  7  1  0      
  6  8  1  0      
  8  9  1  0      
  9 10  1  0      
 10 11  1  0      
 11 12  2  0      
 11 13  1  0      
 13 14  2  0      
 13 15  1  0      
  9 15  1  0      
 15 16  1  0      
 16 17  2  0      
  2 17  1  0      
  6 17  1  0      
M  END
>  <Bioactivity>
Alantolactone(Alant camphor) is a sesquiterpene lactone; has potential activity against triple-negative breast Y MDA-MB-231 cells by suppressing the signal transducer and activator of transcription 3 
(STAT3) signaling pathway.

>  <CAS>
546-43-0

>  <Col>
10

>  <Formula>
C15H20O2

>  <ID>
T2896

>  <Index>
489

>  <MOLENAME>
Helenine

>  <MolWt>
232.33

>  <Pathways>
Others

>  <Plate>
PLATE 007

>  <QR code>
1151479545

>  <Receptor>
Others

>  <Reference>
1. Shope RE. J Exp Med. 1966 Feb 1;123(2):213-27.

>  <Row>
A

>  <SMILES>
CC1CCCC2(C)CC3OC(=O)C(=C)C3C=C12

>  <Target>
Others

>  <Weight>
10.3mg

$$$$
Lab-1.sdf
  ChemDraw05232018482D

 56 62  0  0  0  0  0  0  0  0999 V2000
    2.2414    0.0000    0.0000 C   0  0  0  0  0  0  0  0  0  0  0  0
    2.4818    0.0000    0.0000 C   0  0  0  0  0  0  0  0  0  0  0  0
    3.0399    0.0000    0.0000 C   0  0  0  0  0  0  0  0  0  0  0  0
    3.8451    0.0000    0.0000 C   0  0  0  0  0  0  0  0  0  0  0  0
    4.0922    0.0000    0.0000 C   0  0  0  0  0  0  0  0  0  0  0  0
    3.5341    0.0000    0.0000 C   0  0  0  0  0  0  0  0  0  0  0  0
    4.2293    0.0000    0.0000 C   0  0  0  0  0  0  0  0  0  0  0  0
    2.7289    0.0000    0.0000 C   0  0  0  0  0  0  0  0  0  0  0  0
    2.1753    0.0000    0.0000 C   0  0  0  0  0  0  0  0  0  0  0  0
    1.3663    0.0000    0.0000 C   0  0  0  0  0  0  0  0  0  0  0  0
    1.0626    0.0000    0.0000 C   0  0  0  0  0  0  0  0  0  0  0  0
    0.2520    0.0000    0.0000 C   0  0  0  0  0  0  0  0  0  0  0  0
   -0.3696    0.0000    0.0000 C   0  0  0  0  0  0  0  0  0  0  0  0
   -1.1829    0.0000    0.0000 C   0  0  0  0  0  0  0  0  0  0  0  0
    0.0129    0.0000    0.0000 C   0  0  0  0  0  0  0  0  0  0  0  0
    0.5883    0.0000    0.0000 C   0  0  0  0  0  0  0  0  0  0  0  0
    0.5743    0.0000    0.0000 C   0  0  0  0  0  0  0  0  0  0  0  0
    1.4195    0.0000    0.0000 C   0  0  0  0  0  0  0  0  0  0  0  0
    1.6631    0.0000    0.0000 C   0  0  0  0  0  0  0  0  0  0  0  0
   -0.6758    0.0000    0.0000 O   0  0  0  0  0  0  0  0  0  0  0  0
   -0.6270    0.0000    0.0000 C   0  0  0  0  0  0  0  0  0  0  0  0
    0.1106    0.0000    0.0000 O   0  0  0  0  0  0  0  0  0  0  0  0
    0.1594    0.0000    0.0000 C   0  0  0  0  0  0  0  0  0  0  0  0
    0.8970    0.0000    0.0000 C   0  0  0  0  0  0  0  0  0  0  0  0
    1.5858    0.0000    0.0000 O   0  0  0  0  0  0  0  0  0  0  0  0
   -0.5293    0.0000    0.0000 C   0  0  0  0  0  0  0  0  0  0  0  0
   -0.4805    0.0000    0.0000 O   0  0  0  0  0  0  0  0  0  0  0  0
   -1.2670    0.0000    0.0000 C   0  0  0  0  0  0  0  0  0  0  0  0
   -1.9558    0.0000    0.0000 O   0  0  0  0  0  0  0  0  0  0  0  0
   -1.3158    0.0000    0.0000 C   0  0  0  0  0  0  0  0  0  0  0  0
   -2.0534    0.0000    0.0000 O   0  0  0  0  0  0  0  0  0  0  0  0
   -2.7422    0.0000    0.0000 C   0  0  0  0  0  0  0  0  0  0  0  0
   -2.6934    0.0000    0.0000 O   0  0  0  0  0  0  0  0  0  0  0  0
   -3.3822    0.0000    0.0000 C   0  0  0  0  0  0  0  0  0  0  0  0
   -3.3334    0.0000    0.0000 C   0  0  0  0  0  0  0  0  0  0  0  0
   -4.0222    0.0000    0.0000 O   0  0  0  0  0  0  0  0  0  0  0  0
   -4.1198    0.0000    0.0000 C   0  0  0  0  0  0  0  0  0  0  0  0
   -4.8087    0.0000    0.0000 O   0  0  0  0  0  0  0  0  0  0  0  0
   -4.1686    0.0000    0.0000 C   0  0  0  0  0  0  0  0  0  0  0  0
   -4.9063    0.0000    0.0000 O   0  0  0  0  0  0  0  0  0  0  0  0
   -3.4798    0.0000    0.0000 C   0  0  0  0  0  0  0  0  0  0  0  0
   -3.5286    0.0000    0.0000 O   0  0  0  0  0  0  0  0  0  0  0  0
    3.2174    0.0000    0.0000 C   0  0  0  0  0  0  0  0  0  0  0  0
    2.3993    0.0000    0.0000 O   0  0  0  0  0  0  0  0  0  0  0  0
    3.7188    0.0000    0.0000 O   0  0  0  0  0  0  0  0  0  0  0  0
    3.4021    0.0000    0.0000 C   0  0  0  0  0  0  0  0  0  0  0  0
    3.9035    0.0000    0.0000 O   0  0  0  0  0  0  0  0  0  0  0  0
    3.5868    0.0000    0.0000 C   0  0  0  0  0  0  0  0  0  0  0  0
    4.0882    0.0000    0.0000 C   0  0  0  0  0  0  0  0  0  0  0  0
    4.9063    0.0000    0.0000 O   0  0  0  0  0  0  0  0  0  0  0  0
    2.7688    0.0000    0.0000 C   0  0  0  0  0  0  0  0  0  0  0  0
    2.4521    0.0000    0.0000 O   0  0  0  0  0  0  0  0  0  0  0  0
    2.2674    0.0000    0.0000 C   0  0  0  0  0  0  0  0  0  0  0  0
    1.4493    0.0000    0.0000 O   0  0  0  0  0  0  0  0  0  0  0  0
    2.5840    0.0000    0.0000 C   0  0  0  0  0  0  0  0  0  0  0  0
    2.0826    0.0000    0.0000 O   0  0  0  0  0  0  0  0  0  0  0  0
  1  2  1  0      
  2  3  1  0      
  3  4  1  0      
  4  5  1  0      
  5  6  1  0      
  6  7  1  0      
  6  8  1  0      
  2  8  1  0      
  8  9  1  0      
  9 10  1  0      
 10 11  1  0      
 11 12  1  0      
 12 13  1  0      
 13 14  2  0      
 13 15  1  0      
 15 16  1  0      
 11 16  1  0      
 15 17  1  0      
 17 18  1  0      
 18 19  1  0      
  2 19  1  0      
 11 19  1  0      
 15 20  1  0      
 20 21  1  0      
 21 22  1  0      
 22 23  1  0      
 23 24  1  0      
 24 25  1  0      
 23 26  1  0      
 26 27  1  0      
 26 28  1  0      
 28 29  1  0      
 28 30  1  0      
 21 30  1  0      
 30 31  1  0      
 31 32  1  0      
 32 33  1  0      
 33 34  1  0      
 34 35  1  0      
 35 36  1  0      
 34 37  1  0      
 37 38  1  0      
 37 39  1  0      
 39 40  1  0      
 39 41  1  0      
 32 41  1  0      
 41 42  1  0      
  6 43  1  0      
 43 44  2  0      
 43 45  1  0      
 45 46  1  0      
 46 47  1  0      
 47 48  1  0      
 48 49  1  0      
 49 50  1  0      
 48 51  1  0      
 51 52  1  0      
 51 53  1  0      
 53 54  1  0      
 53 55  1  0      
 46 55  1  0      
 55 56  1  0      
M  END
>  <Bioactivity>
A nantural,noncaloric sweetener with a potency 300 times more than that of regular sucrose. Exhibits transepithelial p-aminohippurate transport via organic anion transport system interference.

>  <CAS>
57817-89-7

>  <Col>
11

>  <Formula>
C38H60O18

>  <ID>
T2911

>  <Index>
490

>  <MOLENAME>
Stevioside

>  <MolWt>
804.88

>  <Pathways>
Immunology/Inflammation

>  <Plate>
PLATE 007

>  <QR code>
1151479544

>  <Receptor>
TLR2

>  <Reference>
1. Wang T, et al. Int Immunopharmacol. 2014 Sep;22(1):192-9.

>  <Row>
A

>  <SMILES>
CC12CCCC(C)(C1CCC13CC(=C)C(C1)(CCC23)OC1OC(CO)C(O)C(O)C1OC1OC(CO)C(O)C(O)C1O)C(=O)OC1OC(CO)C(O)C(O)C1O

>  <Target>
TLR inhibitor

>  <Weight>
9.9mg

$$$$
Lab-1.sdf
  ChemDraw05232018482D

 17 18  0  0  0  0  0  0  0  0999 V2000
    1.7617    0.0000    0.0000 C   0  0  0  0  0  0  0  0  0  0  0  0
    1.7617    0.0000    0.0000 C   0  0  0  0  0  0  0  0  0  0  0  0
    2.4762    0.0000    0.0000 C   0  0  0  0  0  0  0  0  0  0  0  0
    2.4762    0.0000    0.0000 C   0  0  0  0  0  0  0  0  0  0  0  0
    1.7617    0.0000    0.0000 C   0  0  0  0  0  0  0  0  0  0  0  0
    1.0472    0.0000    0.0000 C   0  0  0  0  0  0  0  0  0  0  0  0
    0.5623    0.0000    0.0000 C   0  0  0  0  0  0  0  0  0  0  0  0
    0.3328    0.0000    0.0000 C   0  0  0  0  0  0  0  0  0  0  0  0
   -0.3817    0.0000    0.0000 C   0  0  0  0  0  0  0  0  0  0  0  0
   -1.1663    0.0000    0.0000 O   0  0  0  0  0  0  0  0  0  0  0  0
   -1.6512    0.0000    0.0000 C   0  0  0  0  0  0  0  0  0  0  0  0
   -2.4762    0.0000    0.0000 O   0  0  0  0  0  0  0  0  0  0  0  0
   -1.1663    0.0000    0.0000 C   0  0  0  0  0  0  0  0  0  0  0  0
   -1.4213    0.0000    0.0000 C   0  0  0  0  0  0  0  0  0  0  0  0
   -0.3817    0.0000    0.0000 C   0  0  0  0  0  0  0  0  0  0  0  0
    0.3328    0.0000    0.0000 C   0  0  0  0  0  0  0  0  0  0  0  0
    1.0472    0.0000    0.0000 C   0  0  0  0  0  0  0  0  0  0  0  0
  1  2  1  0      
  2  3  2  0      
  3  4  1  4      
  4  5  1  0      
  5  6  1  0      
  6  7  1  0      
  6  8  2  0      
  8  9  1  4      
  9 10  1  0      
 10 11  1  0      
 11 12  2  0      
 11 13  1  0      
 13 14  2  0      
 13 15  1  0      
  9 15  1  0      
 15 16  1  0      
 16 17  1  0      
  2 17  1  0      
M  END
>  <Bioactivity>
Costunolide, a sesquiterpene lactone, exhibits anti-inflammatory and anti-oxidant properties and mediates apoptosis.

>  <CAS>
553-21-9

>  <Col>
2

>  <Formula>
C15H20O2

>  <ID>
T2902

>  <Index>
491

>  <MOLENAME>
Costunolide

>  <MolWt>
232.32

>  <Pathways>
Others

>  <Plate>
PLATE 007

>  <QR code>
1151479532

>  <Receptor>
Others

>  <Reference>
1. Cheon YH, et al. PhytOthers Res. 2014 Apr;28(4):586-92. 

>  <Row>
B

>  <SMILES>
CC1=CCCC(C)=CC2OC(=O)C(=C)C2CC1

>  <Target>
Others

>  <Weight>
10.2mg

$$$$
Lab-1.sdf
  ChemDraw05232018482D

 20 22  0  0  0  0  0  0  0  0999 V2000
   -0.4369    0.0000    0.0000 C   0  0  0  0  0  0  0  0  0  0  0  0
   -0.4369    0.0000    0.0000 C   0  0  0  0  0  0  0  0  0  0  0  0
    0.2775    0.0000    0.0000 C   0  0  0  0  0  0  0  0  0  0  0  0
   -1.1514    0.0000    0.0000 C   0  0  0  0  0  0  0  0  0  0  0  0
   -1.1514    0.0000    0.0000 C   0  0  0  0  0  0  0  0  0  0  0  0
   -0.4369    0.0000    0.0000 O   0  0  0  0  0  0  0  0  0  0  0  0
   -0.4369    0.0000    0.0000 C   0  0  0  0  0  0  0  0  0  0  0  0
    0.2775    0.0000    0.0000 C   0  0  0  0  0  0  0  0  0  0  0  0
    0.9919    0.0000    0.0000 C   0  0  0  0  0  0  0  0  0  0  0  0
    1.7064    0.0000    0.0000 C   0  0  0  0  0  0  0  0  0  0  0  0
    1.7064    0.0000    0.0000 C   0  0  0  0  0  0  0  0  0  0  0  0
    2.4209    0.0000    0.0000 O   0  0  0  0  0  0  0  0  0  0  0  0
    0.9919    0.0000    0.0000 O   0  0  0  0  0  0  0  0  0  0  0  0
    0.2775    0.0000    0.0000 C   0  0  0  0  0  0  0  0  0  0  0  0
   -0.4369    0.0000    0.0000 C   0  0  0  0  0  0  0  0  0  0  0  0
   -1.1514    0.0000    0.0000 C   0  0  0  0  0  0  0  0  0  0  0  0
   -1.1514    0.0000    0.0000 C   0  0  0  0  0  0  0  0  0  0  0  0
   -1.9360    0.0000    0.0000 C   0  0  0  0  0  0  0  0  0  0  0  0
   -2.4209    0.0000    0.0000 C   0  0  0  0  0  0  0  0  0  0  0  0
   -1.9360    0.0000    0.0000 O   0  0  0  0  0  0  0  0  0  0  0  0
  1  2  1  0      
  2  3  1  0      
  2  4  2  0      
  4  5  1  0      
  5  6  1  0      
  6  7  1  0      
  7  8  2  0      
  8  9  1  0      
  9 10  2  0      
 10 11  1  0      
 11 12  2  0      
 11 13  1  0      
 13 14  1  0      
  8 14  1  0      
 14 15  2  0      
 15 16  1  0      
 16 17  2  0      
  7 17  1  0      
 17 18  1  0      
 18 19  2  0      
 19 20  1  0      
 16 20  1  0      
M  END
>  <Bioactivity>
Isoimperatorin is an anti-inflammatory agent,that also has an effect on proliferation,isolated from the dried roots of Angelicae dahuricae. In bone marrow derived mast cells the compound has been obse
rved to inhibit,at an IC50 24 ¦ÌM and 10.7 ¦ÌM,COX-1

>  <CAS>
482-45-1

>  <Col>
3

>  <Formula>
C16H14O4

>  <ID>
T2846

>  <Index>
492

>  <MOLENAME>
Isoimperatorin

>  <MolWt>
270.28

>  <Pathways>
Neuroscience

>  <Plate>
PLATE 007

>  <QR code>
1151479533

>  <Receptor>
COX1; COX2

>  <Reference>
1. Chen TL, et al. Fitoterapia. 2014 Mar;93:88-97.

>  <Row>
B

>  <SMILES>
CC(C)=CCOC1=C2C=CC(=O)OC2=CC2=C1C=CO2

>  <Target>
COX inhibitor

>  <Weight>
10.4mg

$$$$
Lab-1.sdf
  ChemDraw05232018482D

 21 22  0  0  0  0  0  0  0  0999 V2000
   -2.8579    0.0000    0.0000 C   0  0  0  0  0  0  0  0  0  0  0  0
   -2.1434    0.0000    0.0000 C   0  0  0  0  0  0  0  0  0  0  0  0
   -2.1434    0.0000    0.0000 C   0  0  0  0  0  0  0  0  0  0  0  0
   -1.4290    0.0000    0.0000 C   0  0  0  0  0  0  0  0  0  0  0  0
   -0.7145    0.0000    0.0000 C   0  0  0  0  0  0  0  0  0  0  0  0
   -0.7145    0.0000    0.0000 C   0  0  0  0  0  0  0  0  0  0  0  0
   -1.4290    0.0000    0.0000 O   0  0  0  0  0  0  0  0  0  0  0  0
   -0.0000    0.0000    0.0000 C   0  0  0  0  0  0  0  0  0  0  0  0
   -0.0000    0.0000    0.0000 C   0  0  0  0  0  0  0  0  0  0  0  0
    0.7144    0.0000    0.0000 C   0  0  0  0  0  0  0  0  0  0  0  0
    0.7144    0.0000    0.0000 O   0  0  0  0  0  0  0  0  0  0  0  0
    1.4289    0.0000    0.0000 C   0  0  0  0  0  0  0  0  0  0  0  0
    2.1434    0.0000    0.0000 C   0  0  0  0  0  0  0  0  0  0  0  0
    2.1434    0.0000    0.0000 O   0  0  0  0  0  0  0  0  0  0  0  0
    2.8579    0.0000    0.0000 C   0  0  0  0  0  0  0  0  0  0  0  0
    2.8579    0.0000    0.0000 C   0  0  0  0  0  0  0  0  0  0  0  0
    2.1434    0.0000    0.0000 C   0  0  0  0  0  0  0  0  0  0  0  0
    2.1434    0.0000    0.0000 O   0  0  0  0  0  0  0  0  0  0  0  0
    1.4289    0.0000    0.0000 C   0  0  0  0  0  0  0  0  0  0  0  0
    0.7144    0.0000    0.0000 C   0  0  0  0  0  0  0  0  0  0  0  0
    0.7144    0.0000    0.0000 O   0  0  0  0  0  0  0  0  0  0  0  0
  1  2  1  0      
  2  3  1  0      
  2  4  2  0      
  4  5  1  0      
  5  6  1  0      
  6  7  1  0      
  6  8  1  0      
  8  9  2  0      
  9 10  1  0      
 10 11  2  0      
 10 12  1  0      
 12 13  2  0      
 13 14  1  0      
 13 15  1  0      
 15 16  2  0      
 16 17  1  0      
 17 18  1  0      
 17 19  2  0      
 12 19  1  0      
 19 20  1  0      
  8 20  1  0      
 20 21  2  0      
M  END
>  <Bioactivity>
Alkannin is a natural dye that is obtained from the extracts of plants from the borage family Alkanna tinctoria that are found in the south of France. The dye is used as a food coloring and in cosmeti
cs. It is used as a red-brown food additive in regions such as Australia.

>  <CAS>
54952-43-1

>  <Col>
4

>  <Formula>
C16H16O5

>  <ID>
T2897

>  <Index>
493

>  <MOLENAME>
Shikonin

>  <MolWt>
288.29

>  <Pathways>
Others

>  <Plate>
PLATE 007

>  <QR code>
1151479534

>  <Receptor>
Others

>  <Reference>
1. Zhao Q, et al. Int J Y. 2015 Sep 15;137(6):1446-56.

>  <Row>
B

>  <SMILES>
CC(C)=CCC(O)C1=CC(=O)C2=C(O)C=CC(O)=C2C1=O

>  <Target>
Others

>  <Weight>
10.3mg

$$$$
Lab-1.sdf
  ChemDraw05232018482D

 33 36  0  0  0  0  0  0  0  0999 V2000
    0.3572    0.0000    0.0000 O   0  0  0  0  0  0  0  0  0  0  0  0
    0.3572    0.0000    0.0000 C   0  0  0  0  0  0  0  0  0  0  0  0
   -0.3572    0.0000    0.0000 C   0  0  0  0  0  0  0  0  0  0  0  0
   -0.3572    0.0000    0.0000 O   0  0  0  0  0  0  0  0  0  0  0  0
   -1.0717    0.0000    0.0000 C   0  0  0  0  0  0  0  0  0  0  0  0
   -1.0717    0.0000    0.0000 O   0  0  0  0  0  0  0  0  0  0  0  0
   -0.3572    0.0000    0.0000 C   0  0  0  0  0  0  0  0  0  0  0  0
   -0.3572    0.0000    0.0000 C   0  0  0  0  0  0  0  0  0  0  0  0
    0.3572    0.0000    0.0000 O   0  0  0  0  0  0  0  0  0  0  0  0
    1.0717    0.0000    0.0000 C   0  0  0  0  0  0  0  0  0  0  0  0
    1.7862    0.0000    0.0000 C   0  0  0  0  0  0  0  0  0  0  0  0
    2.5007    0.0000    0.0000 C   0  0  0  0  0  0  0  0  0  0  0  0
    3.2151    0.0000    0.0000 O   0  0  0  0  0  0  0  0  0  0  0  0
    2.5007    0.0000    0.0000 C   0  0  0  0  0  0  0  0  0  0  0  0
    1.7862    0.0000    0.0000 C   0  0  0  0  0  0  0  0  0  0  0  0
    1.7862    0.0000    0.0000 O   0  0  0  0  0  0  0  0  0  0  0  0
    1.0717    0.0000    0.0000 C   0  0  0  0  0  0  0  0  0  0  0  0
    0.3572    0.0000    0.0000 C   0  0  0  0  0  0  0  0  0  0  0  0
    0.3572    0.0000    0.0000 O   0  0  0  0  0  0  0  0  0  0  0  0
   -1.0717    0.0000    0.0000 C   0  0  0  0  0  0  0  0  0  0  0  0
   -1.7862    0.0000    0.0000 C   0  0  0  0  0  0  0  0  0  0  0  0
   -2.5006    0.0000    0.0000 C   0  0  0  0  0  0  0  0  0  0  0  0
   -3.2151    0.0000    0.0000 O   0  0  0  0  0  0  0  0  0  0  0  0
   -2.5006    0.0000    0.0000 C   0  0  0  0  0  0  0  0  0  0  0  0
   -3.2151    0.0000    0.0000 O   0  0  0  0  0  0  0  0  0  0  0  0
   -1.7862    0.0000    0.0000 C   0  0  0  0  0  0  0  0  0  0  0  0
   -1.0717    0.0000    0.0000 C   0  0  0  0  0  0  0  0  0  0  0  0
   -1.7862    0.0000    0.0000 C   0  0  0  0  0  0  0  0  0  0  0  0
   -2.5006    0.0000    0.0000 O   0  0  0  0  0  0  0  0  0  0  0  0
   -1.7862    0.0000    0.0000 C   0  0  0  0  0  0  0  0  0  0  0  0
   -2.5006    0.0000    0.0000 O   0  0  0  0  0  0  0  0  0  0  0  0
   -1.0717    0.0000    0.0000 C   0  0  0  0  0  0  0  0  0  0  0  0
   -1.0717    0.0000    0.0000 O   0  0  0  0  0  0  0  0  0  0  0  0
  1  2  1  0      
  2  3  1  0      
  3  4  1  0      
  4  5  1  0      
  5  6  1  0      
  6  7  1  0      
  7  8  2  0      
  8  9  1  0      
  9 10  1  0      
 10 11  2  0      
 11 12  1  0      
 12 13  1  0      
 12 14  2  0      
 14 15  1  0      
 15 16  1  0      
 15 17  2  0      
 10 17  1  0      
 17 18  1  0      
  7 18  1  0      
 18 19  2  0      
  8 20  1  0      
 20 21  2  0      
 21 22  1  0      
 22 23  1  0      
 22 24  2  0      
 24 25  1  0      
 24 26  1  0      
 26 27  2  0      
 20 27  1  0      
  5 28  1  0      
 28 29  1  0      
 28 30  1  0      
 30 31  1  0      
 30 32  1  0      
  3 32  1  0      
 32 33  1  0      
M  END
>  <Bioactivity>
Extracted from CLUSIACEAE fruit;Suitability:Ethanol,methanol,acetone and pyridine;Store the product in sealed,cool and dry condition

>  <CAS>
482-36-0

>  <Col>
5

>  <Formula>
C21H20O12

>  <ID>
T2844

>  <Index>
494

>  <MOLENAME>
Hyperoside

>  <MolWt>
464.38

>  <Pathways>
Others

>  <Plate>
PLATE 007

>  <QR code>
1151479535

>  <Receptor>
Others

>  <Reference>
1. Zhang N, et al. PLoS One. 2014 Jul 1;9(7):e98973.

>  <Row>
B

>  <SMILES>
OCC1OC(OC2=C(OC3=CC(O)=CC(O)=C3C2=O)C2=CC(O)=C(O)C=C2)C(O)C(O)C1O

>  <Target>
Others

>  <Weight>
10.4mg

$$$$
Lab-1.sdf
  ChemDraw05232018482D

 29 32  0  0  0  0  0  0  0  0999 V2000
    3.1982    0.0000    0.0000 C   0  0  0  0  0  0  0  0  0  0  0  0
    2.3949    0.0000    0.0000 O   0  0  0  0  0  0  0  0  0  0  0  0
    1.5705    0.0000    0.0000 C   0  0  0  0  0  0  0  0  0  0  0  0
    0.8542    0.0000    0.0000 C   0  0  0  0  0  0  0  0  0  0  0  0
    1.0914    0.0000    0.0000 O   0  0  0  0  0  0  0  0  0  0  0  0
    1.6292    0.0000    0.0000 C   0  0  0  0  0  0  0  0  0  0  0  0
    0.1416    0.0000    0.0000 C   0  0  0  0  0  0  0  0  0  0  0  0
   -0.4187    0.0000    0.0000 O   0  0  0  0  0  0  0  0  0  0  0  0
   -0.4948    0.0000    0.0000 C   0  0  0  0  0  0  0  0  0  0  0  0
    0.1452    0.0000    0.0000 C   0  0  0  0  0  0  0  0  0  0  0  0
    0.8615    0.0000    0.0000 C   0  0  0  0  0  0  0  0  0  0  0  0
    1.0785    0.0000    0.0000 C   0  0  0  0  0  0  0  0  0  0  0  0
    0.6691    0.0000    0.0000 C   0  0  0  0  0  0  0  0  0  0  0  0
    1.2043    0.0000    0.0000 C   0  0  0  0  0  0  0  0  0  0  0  0
   -0.1267    0.0000    0.0000 C   0  0  0  0  0  0  0  0  0  0  0  0
   -0.2477    0.0000    0.0000 C   0  0  0  0  0  0  0  0  0  0  0  0
   -0.8430    0.0000    0.0000 C   0  0  0  0  0  0  0  0  0  0  0  0
   -1.0600    0.0000    0.0000 C   0  0  0  0  0  0  0  0  0  0  0  0
   -1.8850    0.0000    0.0000 C   0  0  0  0  0  0  0  0  0  0  0  0
   -2.3006    0.0000    0.0000 C   0  0  0  0  0  0  0  0  0  0  0  0
   -1.8913    0.0000    0.0000 C   0  0  0  0  0  0  0  0  0  0  0  0
   -2.4460    0.0000    0.0000 O   0  0  0  0  0  0  0  0  0  0  0  0
   -3.1982    0.0000    0.0000 C   0  0  0  0  0  0  0  0  0  0  0  0
   -3.1083    0.0000    0.0000 O   0  0  0  0  0  0  0  0  0  0  0  0
   -1.0663    0.0000    0.0000 C   0  0  0  0  0  0  0  0  0  0  0  0
   -0.7013    0.0000    0.0000 O   0  0  0  0  0  0  0  0  0  0  0  0
   -1.1943    0.0000    0.0000 C   0  0  0  0  0  0  0  0  0  0  0  0
   -0.6506    0.0000    0.0000 C   0  0  0  0  0  0  0  0  0  0  0  0
    1.5741    0.0000    0.0000 C   0  0  0  0  0  0  0  0  0  0  0  0
  1  2  1  0      
  2  3  1  0      
  3  4  2  0      
  4  5  1  0      
  5  6  1  0      
  4  7  1  0      
  7  8  1  0      
  8  9  1  0      
  7 10  2  0      
 10 11  1  0      
 11 12  1  0      
 12 13  1  0      
 13 14  1  0      
 13 15  1  0      
 15 16  1  0      
 15 17  1  0      
 17 18  1  0      
 18 19  2  0      
 19 20  1  0      
 20 21  2  0      
 21 22  1  0      
 22 23  1  0      
 23 24  1  0      
 20 24  1  0      
 21 25  1  0      
 25 26  1  0      
 26 27  1  0      
 25 28  2  0      
 10 28  1  0      
 18 28  1  0      
 11 29  2  0      
  3 29  1  0      
M  END
>  <Bioactivity>
Schisandrin B(Wuweizisu-B) is a dibenzocyclooctadiene derivative isolated from Fructus Schisandrae, has been shown to produce antioxidant effect on rodent liver and heart.

>  <CAS>
61281-37-6

>  <Col>
6

>  <Formula>
C23H28O6

>  <ID>
T2925

>  <Index>
495

>  <MOLENAME>
Schizandrin B

>  <MolWt>
400.46

>  <Pathways>
PI3K/Akt/mTOR Signaling

>  <Plate>
PLATE 007

>  <QR code>
1151479536

>  <Receptor>
ATR

>  <Reference>
1. Bunel V, et al. J Appl Toxicol. 2014 Dec;34(12):1311-9. 

>  <Row>
B

>  <SMILES>
COC1=C(OC)C(OC)=C2C(CC(C)C(C)CC3=CC4=C(OCO4)C(OC)=C23)=C1

>  <Target>
ATM/ATR inhibitor

>  <Weight>
10.4mg

$$$$
Lab-1.sdf
  ChemDraw05232018482D

 22 24  0  0  0  0  0  0  0  0999 V2000
   -3.2151    0.0000    0.0000 O   0  0  0  0  0  0  0  0  0  0  0  0
   -2.5006    0.0000    0.0000 C   0  0  0  0  0  0  0  0  0  0  0  0
   -2.5006    0.0000    0.0000 C   0  0  0  0  0  0  0  0  0  0  0  0
   -1.7862    0.0000    0.0000 C   0  0  0  0  0  0  0  0  0  0  0  0
   -1.7862    0.0000    0.0000 O   0  0  0  0  0  0  0  0  0  0  0  0
   -1.0717    0.0000    0.0000 C   0  0  0  0  0  0  0  0  0  0  0  0
   -0.3572    0.0000    0.0000 C   0  0  0  0  0  0  0  0  0  0  0  0
    0.3573    0.0000    0.0000 C   0  0  0  0  0  0  0  0  0  0  0  0
    1.0717    0.0000    0.0000 O   0  0  0  0  0  0  0  0  0  0  0  0
    0.3573    0.0000    0.0000 C   0  0  0  0  0  0  0  0  0  0  0  0
    1.0717    0.0000    0.0000 C   0  0  0  0  0  0  0  0  0  0  0  0
    1.7862    0.0000    0.0000 C   0  0  0  0  0  0  0  0  0  0  0  0
    1.7862    0.0000    0.0000 O   0  0  0  0  0  0  0  0  0  0  0  0
    2.5007    0.0000    0.0000 C   0  0  0  0  0  0  0  0  0  0  0  0
    2.5007    0.0000    0.0000 C   0  0  0  0  0  0  0  0  0  0  0  0
    3.2151    0.0000    0.0000 O   0  0  0  0  0  0  0  0  0  0  0  0
    1.7862    0.0000    0.0000 C   0  0  0  0  0  0  0  0  0  0  0  0
    1.0717    0.0000    0.0000 C   0  0  0  0  0  0  0  0  0  0  0  0
   -0.3572    0.0000    0.0000 O   0  0  0  0  0  0  0  0  0  0  0  0
   -0.3572    0.0000    0.0000 O   0  0  0  0  0  0  0  0  0  0  0  0
   -1.0717    0.0000    0.0000 C   0  0  0  0  0  0  0  0  0  0  0  0
   -1.7862    0.0000    0.0000 C   0  0  0  0  0  0  0  0  0  0  0  0
  1  2  1  0      
  2  3  2  0      
  3  4  1  0      
  4  5  1  0      
  4  6  2  0      
  6  7  1  0      
  7  8  1  0      
  8  9  1  0      
  8 10  2  0      
 10 11  1  0      
 11 12  2  0      
 12 13  1  0      
 12 14  1  0      
 14 15  2  0      
 15 16  1  0      
 15 17  1  0      
 17 18  2  0      
 11 18  1  0      
 10 19  1  0      
  7 20  2  0      
  6 21  1  0      
 19 21  1  0      
 21 22  2  0      
  2 22  1  0      
M  END
>  <Bioactivity>
Morin is a chemical compound. It is a yellow color substance that can be isolated from Maclura pomifera (Osage orange), Maclura tinctoria (old fustic) and from leaves of Psidium guajava (common guava)
. In a preclinical in vitro study, morin was found to be a weak inhibitor of fatty acid synthase with an IC50 of 2.33 ¦ÌM.

>  <CAS>
480-16-0

>  <Col>
7

>  <Formula>
C15H10O7

>  <ID>
T2835

>  <Index>
496

>  <MOLENAME>
Morin

>  <MolWt>
302.23

>  <Pathways>
Others

>  <Plate>
PLATE 007

>  <QR code>
1151479537

>  <Receptor>
Others

>  <Reference>
1. Tian, WX. Current Medicinal Chemistry, 2006, 13 (8): 967?977.

>  <Row>
B

>  <SMILES>
OC1=CC(O)=C(C(C(O)=C(C2=C(O)C=C(O)C=C2)O3)=O)C3=C1

>  <Target>
fatty acid synthase iinhibitor

>  <Weight>
10mg

$$$$
Lab-1.sdf
  ChemDraw05232018482D

 77 84  0  0  0  0  0  0  0  0999 V2000
   -1.2700    0.0000    0.0000 C   0  0  0  0  0  0  0  0  0  0  0  0
   -2.0872    0.0000    0.0000 C   0  0  0  0  0  0  0  0  0  0  0  0
   -2.5937    0.0000    0.0000 C   0  0  0  0  0  0  0  0  0  0  0  0
   -2.3982    0.0000    0.0000 C   0  0  0  0  0  0  0  0  0  0  0  0
   -3.2155    0.0000    0.0000 C   0  0  0  0  0  0  0  0  0  0  0  0
   -3.5264    0.0000    0.0000 C   0  0  0  0  0  0  0  0  0  0  0  0
   -3.0200    0.0000    0.0000 C   0  0  0  0  0  0  0  0  0  0  0  0
   -2.3687    0.0000    0.0000 C   0  0  0  0  0  0  0  0  0  0  0  0
   -3.6713    0.0000    0.0000 O   0  0  0  0  0  0  0  0  0  0  0  0
   -4.4355    0.0000    0.0000 C   0  0  0  0  0  0  0  0  0  0  0  0
   -4.5484    0.0000    0.0000 O   0  0  0  0  0  0  0  0  0  0  0  0
   -5.3125    0.0000    0.0000 C   0  0  0  0  0  0  0  0  0  0  0  0
   -5.4254    0.0000    0.0000 C   0  0  0  0  0  0  0  0  0  0  0  0
   -6.1896    0.0000    0.0000 O   0  0  0  0  0  0  0  0  0  0  0  0
   -6.3024    0.0000    0.0000 C   0  0  0  0  0  0  0  0  0  0  0  0
   -7.0667    0.0000    0.0000 O   0  0  0  0  0  0  0  0  0  0  0  0
   -7.1796    0.0000    0.0000 C   0  0  0  0  0  0  0  0  0  0  0  0
   -7.9437    0.0000    0.0000 C   0  0  0  0  0  0  0  0  0  0  0  0
   -8.0566    0.0000    0.0000 O   0  0  0  0  0  0  0  0  0  0  0  0
   -6.5281    0.0000    0.0000 C   0  0  0  0  0  0  0  0  0  0  0  0
   -6.6410    0.0000    0.0000 O   0  0  0  0  0  0  0  0  0  0  0  0
   -5.7639    0.0000    0.0000 C   0  0  0  0  0  0  0  0  0  0  0  0
   -5.1126    0.0000    0.0000 O   0  0  0  0  0  0  0  0  0  0  0  0
   -5.6511    0.0000    0.0000 C   0  0  0  0  0  0  0  0  0  0  0  0
   -4.8869    0.0000    0.0000 O   0  0  0  0  0  0  0  0  0  0  0  0
   -5.9639    0.0000    0.0000 C   0  0  0  0  0  0  0  0  0  0  0  0
   -6.7282    0.0000    0.0000 O   0  0  0  0  0  0  0  0  0  0  0  0
   -5.8510    0.0000    0.0000 C   0  0  0  0  0  0  0  0  0  0  0  0
   -6.5023    0.0000    0.0000 O   0  0  0  0  0  0  0  0  0  0  0  0
   -5.0868    0.0000    0.0000 C   0  0  0  0  0  0  0  0  0  0  0  0
   -4.9740    0.0000    0.0000 O   0  0  0  0  0  0  0  0  0  0  0  0
   -2.5136    0.0000    0.0000 C   0  0  0  0  0  0  0  0  0  0  0  0
   -2.7430    0.0000    0.0000 C   0  0  0  0  0  0  0  0  0  0  0  0
   -2.0600    0.0000    0.0000 C   0  0  0  0  0  0  0  0  0  0  0  0
   -1.4087    0.0000    0.0000 C   0  0  0  0  0  0  0  0  0  0  0  0
   -1.2110    0.0000    0.0000 C   0  0  0  0  0  0  0  0  0  0  0  0
   -1.6890    0.0000    0.0000 C   0  0  0  0  0  0  0  0  0  0  0  0
   -1.1572    0.0000    0.0000 C   0  0  0  0  0  0  0  0  0  0  0  0
   -1.4375    0.0000    0.0000 O   0  0  0  0  0  0  0  0  0  0  0  0
   -0.3450    0.0000    0.0000 C   0  0  0  0  0  0  0  0  0  0  0  0
   -0.0647    0.0000    0.0000 C   0  0  0  0  0  0  0  0  0  0  0  0
    0.7474    0.0000    0.0000 C   0  0  0  0  0  0  0  0  0  0  0  0
    0.4671    0.0000    0.0000 C   0  0  0  0  0  0  0  0  0  0  0  0
    1.2792    0.0000    0.0000 C   0  0  0  0  0  0  0  0  0  0  0  0
    2.0913    0.0000    0.0000 C   0  0  0  0  0  0  0  0  0  0  0  0
    2.3717    0.0000    0.0000 C   0  0  0  0  0  0  0  0  0  0  0  0
    3.1838    0.0000    0.0000 O   0  0  0  0  0  0  0  0  0  0  0  0
    3.7157    0.0000    0.0000 C   0  0  0  0  0  0  0  0  0  0  0  0
    3.4354    0.0000    0.0000 O   0  0  0  0  0  0  0  0  0  0  0  0
    3.9672    0.0000    0.0000 C   0  0  0  0  0  0  0  0  0  0  0  0
    3.6869    0.0000    0.0000 C   0  0  0  0  0  0  0  0  0  0  0  0
    4.2187    0.0000    0.0000 O   0  0  0  0  0  0  0  0  0  0  0  0
    4.7793    0.0000    0.0000 C   0  0  0  0  0  0  0  0  0  0  0  0
    5.3111    0.0000    0.0000 O   0  0  0  0  0  0  0  0  0  0  0  0
    5.0596    0.0000    0.0000 C   0  0  0  0  0  0  0  0  0  0  0  0
    5.8717    0.0000    0.0000 O   0  0  0  0  0  0  0  0  0  0  0  0
    4.5278    0.0000    0.0000 C   0  0  0  0  0  0  0  0  0  0  0  0
    4.8081    0.0000    0.0000 O   0  0  0  0  0  0  0  0  0  0  0  0
    5.6202    0.0000    0.0000 C   0  0  0  0  0  0  0  0  0  0  0  0
    6.1520    0.0000    0.0000 O   0  0  0  0  0  0  0  0  0  0  0  0
    6.9642    0.0000    0.0000 C   0  0  0  0  0  0  0  0  0  0  0  0
    7.4960    0.0000    0.0000 C   0  0  0  0  0  0  0  0  0  0  0  0
    7.2158    0.0000    0.0000 O   0  0  0  0  0  0  0  0  0  0  0  0
    7.2445    0.0000    0.0000 C   0  0  0  0  0  0  0  0  0  0  0  0
    8.0566    0.0000    0.0000 O   0  0  0  0  0  0  0  0  0  0  0  0
    6.7127    0.0000    0.0000 C   0  0  0  0  0  0  0  0  0  0  0  0
    6.9930    0.0000    0.0000 O   0  0  0  0  0  0  0  0  0  0  0  0
    5.9005    0.0000    0.0000 C   0  0  0  0  0  0  0  0  0  0  0  0
    5.3687    0.0000    0.0000 O   0  0  0  0  0  0  0  0  0  0  0  0
    1.8398    0.0000    0.0000 C   0  0  0  0  0  0  0  0  0  0  0  0
    2.5534    0.0000    0.0000 C   0  0  0  0  0  0  0  0  0  0  0  0
    1.5558    0.0000    0.0000 C   0  0  0  0  0  0  0  0  0  0  0  0
    1.0277    0.0000    0.0000 C   0  0  0  0  0  0  0  0  0  0  0  0
    0.4959    0.0000    0.0000 C   0  0  0  0  0  0  0  0  0  0  0  0
   -0.3163    0.0000    0.0000 C   0  0  0  0  0  0  0  0  0  0  0  0
   -0.5966    0.0000    0.0000 C   0  0  0  0  0  0  0  0  0  0  0  0
   -0.9075    0.0000    0.0000 C   0  0  0  0  0  0  0  0  0  0  0  0
  1  2  1  0      
  2  3  1  0      
  2  4  2  0      
  4  5  1  0      
  5  6  1  0      
  6  7  1  0      
  7  8  1  0      
  7  9  1  0      
  9 10  1  0      
 10 11  1  0      
 11 12  1  0      
 12 13  1  0      
 13 14  1  0      
 14 15  1  0      
 15 16  1  0      
 16 17  1  0      
 17 18  1  0      
 18 19  1  0      
 17 20  1  0      
 20 21  1  0      
 20 22  1  0      
 22 23  1  0      
 22 24  1  0      
 15 24  1  0      
 24 25  1  0      
 12 26  1  0      
 26 27  1  0      
 26 28  1  0      
 28 29  1  0      
 28 30  1  0      
 10 30  1  0      
 30 31  1  0      
  7 32  1  0      
 32 33  1  0      
 33 34  1  0      
 34 35  1  0      
 35 36  1  0      
 35 37  1  0      
 32 37  1  0      
 37 38  1  0      
 38 39  1  0      
 38 40  1  0      
 40 41  1  0      
 41 42  1  0      
 42 43  1  0      
 42 44  1  0      
 44 45  1  0      
 45 46  1  0      
 46 47  1  0      
 47 48  1  0      
 48 49  1  0      
 49 50  1  0      
 50 51  1  0      
 51 52  1  0      
 50 53  1  0      
 53 54  1  0      
 53 55  1  0      
 55 56  1  0      
 55 57  1  0      
 48 57  1  0      
 57 58  1  0      
 58 59  1  0      
 59 60  1  0      
 60 61  1  0      
 61 62  1  0      
 62 63  1  0      
 61 64  1  0      
 64 65  1  0      
 64 66  1  0      
 66 67  1  0      
 66 68  1  0      
 59 68  1  0      
 68 69  1  0      
 46 70  1  0      
 70 71  1  0      
 70 72  1  0      
 70 73  1  0      
 42 73  1  0      
 73 74  1  0      
 74 75  1  0      
 75 76  1  0      
 35 76  1  0      
 41 76  1  0      
 76 77  1  0      
M  END
>  <Bioactivity>
Ginsenoside Rb1 is part of a class of steroid glycosides; may have properties that inhibit or prevent the growth of tumors.

>  <CAS>
41753-43-9

>  <Col>
8

>  <Formula>
C54H92O23

>  <ID>
T2822

>  <Index>
497

>  <MOLENAME>
Ginsenoside Rb1

>  <MolWt>
1109.29

>  <Pathways>
Others

>  <Plate>
PLATE 007

>  <QR code>
1151479538

>  <Receptor>
Others

>  <Reference>
1. Zhang XJ, et al. Vascul Pharmacol. 2015 Oct;73:86-95. 

>  <Row>
B

>  <SMILES>
CC(C)=CCCC(C)(OC1OC(COC2OC(CO)C(O)C(O)C2O)C(O)C(O)C1O)C1CCC2(C)C1C(O)CC1C3(C)CCC(OC4OC(CO)C(O)C(O)C4OC4OC(CO)C(O)C(O)C4O)C(C)(C)C3CCC21C

>  <Target>
Others

>  <Weight>
10.3mg

$$$$
Lab-1.sdf
  ChemDraw05232018482D

 42 44  0  0  0  0  0  0  0  0999 V2000
   -4.2537    0.0000    0.0000 C   0  0  0  0  0  0  0  0  0  0  0  0
   -4.6662    0.0000    0.0000 C   0  0  0  0  0  0  0  0  0  0  0  0
   -4.2537    0.0000    0.0000 O   0  0  0  0  0  0  0  0  0  0  0  0
   -5.4912    0.0000    0.0000 O   0  0  0  0  0  0  0  0  0  0  0  0
   -1.6535    0.0000    0.0000 C   0  0  0  0  0  0  0  0  0  0  0  0
   -0.9390    0.0000    0.0000 C   0  0  0  0  0  0  0  0  0  0  0  0
   -0.2246    0.0000    0.0000 C   0  0  0  0  0  0  0  0  0  0  0  0
   -0.9390    0.0000    0.0000 C   0  0  0  0  0  0  0  0  0  0  0  0
   -1.6535    0.0000    0.0000 C   0  0  0  0  0  0  0  0  0  0  0  0
   -2.3680    0.0000    0.0000 O   0  0  0  0  0  0  0  0  0  0  0  0
   -1.6535    0.0000    0.0000 C   0  0  0  0  0  0  0  0  0  0  0  0
   -2.3680    0.0000    0.0000 O   0  0  0  0  0  0  0  0  0  0  0  0
   -0.9390    0.0000    0.0000 C   0  0  0  0  0  0  0  0  0  0  0  0
   -0.9390    0.0000    0.0000 C   0  0  0  0  0  0  0  0  0  0  0  0
   -0.2246    0.0000    0.0000 O   0  0  0  0  0  0  0  0  0  0  0  0
   -0.2246    0.0000    0.0000 C   0  0  0  0  0  0  0  0  0  0  0  0
    0.4899    0.0000    0.0000 C   0  0  0  0  0  0  0  0  0  0  0  0
    0.4899    0.0000    0.0000 O   0  0  0  0  0  0  0  0  0  0  0  0
    1.2044    0.0000    0.0000 C   0  0  0  0  0  0  0  0  0  0  0  0
    1.2044    0.0000    0.0000 C   0  0  0  0  0  0  0  0  0  0  0  0
    1.9188    0.0000    0.0000 C   0  0  0  0  0  0  0  0  0  0  0  0
    0.4899    0.0000    0.0000 C   0  0  0  0  0  0  0  0  0  0  0  0
   -0.2246    0.0000    0.0000 C   0  0  0  0  0  0  0  0  0  0  0  0
    1.9188    0.0000    0.0000 C   0  0  0  0  0  0  0  0  0  0  0  0
    1.9188    0.0000    0.0000 C   0  0  0  0  0  0  0  0  0  0  0  0
    1.2044    0.0000    0.0000 C   0  0  0  0  0  0  0  0  0  0  0  0
    2.6333    0.0000    0.0000 C   0  0  0  0  0  0  0  0  0  0  0  0
    3.3478    0.0000    0.0000 C   0  0  0  0  0  0  0  0  0  0  0  0
    4.0623    0.0000    0.0000 C   0  0  0  0  0  0  0  0  0  0  0  0
    4.0623    0.0000    0.0000 C   0  0  0  0  0  0  0  0  0  0  0  0
    3.3478    0.0000    0.0000 C   0  0  0  0  0  0  0  0  0  0  0  0
    4.7767    0.0000    0.0000 C   0  0  0  0  0  0  0  0  0  0  0  0
    4.7767    0.0000    0.0000 C   0  0  0  0  0  0  0  0  0  0  0  0
    5.4912    0.0000    0.0000 O   0  0  0  0  0  0  0  0  0  0  0  0
    4.7767    0.0000    0.0000 C   0  0  0  0  0  0  0  0  0  0  0  0
    5.4912    0.0000    0.0000 O   0  0  0  0  0  0  0  0  0  0  0  0
    4.0623    0.0000    0.0000 C   0  0  0  0  0  0  0  0  0  0  0  0
    4.0623    0.0000    0.0000 C   0  0  0  0  0  0  0  0  0  0  0  0
    3.3478    0.0000    0.0000 O   0  0  0  0  0  0  0  0  0  0  0  0
    3.3478    0.0000    0.0000 C   0  0  0  0  0  0  0  0  0  0  0  0
    2.6333    0.0000    0.0000 C   0  0  0  0  0  0  0  0  0  0  0  0
    2.6333    0.0000    0.0000 O   0  0  0  0  0  0  0  0  0  0  0  0
  1  2  1  0      
  2  3  1  0      
  2  4  2  0      
  5  6  1  0      
  6  7  1  0      
  6  8  1  0      
  8  9  2  0      
  9 10  1  0      
  9 11  1  0      
 11 12  1  0      
 11 13  2  0      
 13 14  1  0      
 14 15  2  0      
 13 16  1  0      
 16 17  2  0      
 17 18  1  0      
 17 19  1  0      
 19 20  2  0      
 20 21  1  0      
 20 22  1  0      
 22 23  2  0      
  8 23  1  0      
 16 23  1  0      
 19 24  1  0      
 24 25  2  0      
 25 26  1  0      
 25 27  1  0      
 27 28  2  0      
 28 29  1  0      
 29 30  1  0      
 30 31  1  0      
 30 32  1  0      
 29 33  2  0      
 33 34  1  0      
 33 35  1  0      
 35 36  1  0      
 35 37  2  0      
 37 38  1  0      
 38 39  2  0      
 37 40  1  0      
 28 40  1  0      
 40 41  2  0      
 24 41  1  0      
 41 42  1  0      
M  END
>  <Bioactivity>
Gossypol-acetic acid, a polyphenolic compound isolated from cottonseeds, inhibits Bcl-2 by acting as a BH3 mimetic.

>  <CAS>
12542-36-8

>  <Col>
9

>  <Formula>
C32H34O10

>  <ID>
T2730

>  <Index>
498

>  <MOLENAME>
Gossypol acetic acid

>  <MolWt>
578.61

>  <Pathways>
Apoptosis

>  <Plate>
PLATE 007

>  <QR code>
1151479539

>  <Receptor>
Bcl-2

>  <Reference>
1. Deng S, et al. J Vet Sci, 2013. 14(3): p. 281-9.

>  <Row>
B

>  <SMILES>
CC(O)=O.CC(C)C1=C(O)C(O)=C(C=O)C2=C(O)C(=C(C)C=C12)C1=C(C)C=C2C(C(C)C)=C(O)C(O)=C(C=O)C2=C1O

>  <Target>
Bcl-2 inhibitor

>  <Weight>
10.3mg

$$$$
Lab-1.sdf
  ChemDraw05232018482D

 30 33  0  0  0  0  0  0  0  0999 V2000
   -3.9296    0.0000    0.0000 O   0  0  0  0  0  0  0  0  0  0  0  0
   -3.2151    0.0000    0.0000 C   0  0  0  0  0  0  0  0  0  0  0  0
   -3.2151    0.0000    0.0000 C   0  0  0  0  0  0  0  0  0  0  0  0
   -2.5006    0.0000    0.0000 O   0  0  0  0  0  0  0  0  0  0  0  0
   -2.5006    0.0000    0.0000 C   0  0  0  0  0  0  0  0  0  0  0  0
   -1.7861    0.0000    0.0000 O   0  0  0  0  0  0  0  0  0  0  0  0
   -1.0717    0.0000    0.0000 C   0  0  0  0  0  0  0  0  0  0  0  0
   -0.3573    0.0000    0.0000 C   0  0  0  0  0  0  0  0  0  0  0  0
    0.3573    0.0000    0.0000 C   0  0  0  0  0  0  0  0  0  0  0  0
    0.3573    0.0000    0.0000 C   0  0  0  0  0  0  0  0  0  0  0  0
   -0.3573    0.0000    0.0000 C   0  0  0  0  0  0  0  0  0  0  0  0
   -1.0717    0.0000    0.0000 C   0  0  0  0  0  0  0  0  0  0  0  0
    1.0716    0.0000    0.0000 C   0  0  0  0  0  0  0  0  0  0  0  0
    1.0716    0.0000    0.0000 O   0  0  0  0  0  0  0  0  0  0  0  0
    1.7861    0.0000    0.0000 C   0  0  0  0  0  0  0  0  0  0  0  0
    1.7861    0.0000    0.0000 C   0  0  0  0  0  0  0  0  0  0  0  0
    1.0716    0.0000    0.0000 O   0  0  0  0  0  0  0  0  0  0  0  0
    2.5006    0.0000    0.0000 C   0  0  0  0  0  0  0  0  0  0  0  0
    2.5006    0.0000    0.0000 C   0  0  0  0  0  0  0  0  0  0  0  0
    3.2151    0.0000    0.0000 C   0  0  0  0  0  0  0  0  0  0  0  0
    3.9295    0.0000    0.0000 C   0  0  0  0  0  0  0  0  0  0  0  0
    4.6440    0.0000    0.0000 O   0  0  0  0  0  0  0  0  0  0  0  0
    3.9295    0.0000    0.0000 C   0  0  0  0  0  0  0  0  0  0  0  0
    3.2151    0.0000    0.0000 C   0  0  0  0  0  0  0  0  0  0  0  0
   -3.2151    0.0000    0.0000 C   0  0  0  0  0  0  0  0  0  0  0  0
   -3.2151    0.0000    0.0000 O   0  0  0  0  0  0  0  0  0  0  0  0
   -3.9296    0.0000    0.0000 C   0  0  0  0  0  0  0  0  0  0  0  0
   -4.6440    0.0000    0.0000 O   0  0  0  0  0  0  0  0  0  0  0  0
   -3.9296    0.0000    0.0000 C   0  0  0  0  0  0  0  0  0  0  0  0
   -4.6440    0.0000    0.0000 O   0  0  0  0  0  0  0  0  0  0  0  0
  1  2  1  0      
  2  3  1  0      
  3  4  1  0      
  4  5  1  0      
  5  6  1  0      
  6  7  1  0      
  7  8  2  0      
  8  9  1  0      
  9 10  2  0      
 10 11  1  0      
 11 12  2  0      
  7 12  1  0      
 10 13  1  0      
 13 14  2  0      
 13 15  1  0      
 15 16  2  0      
 16 17  1  0      
  9 17  1  0      
 15 18  1  0      
 18 19  2  0      
 19 20  1  0      
 20 21  2  0      
 21 22  1  0      
 21 23  1  0      
 23 24  2  0      
 18 24  1  0      
  5 25  1  0      
 25 26  1  0      
 25 27  1  0      
 27 28  1  0      
 27 29  1  0      
  3 29  1  0      
 29 30  1  0      
M  END
>  <Bioactivity>
Daidzin is an isoflavone that has anti-oxidant, anti-carcinogenic, and anti-atherosclerotic activities; directly inhibits mitochondrial aldehyde dehydrogenase 2 (IC50 = 80 nM) and is an effective anti
-dipsotropic isoflavone.

>  <CAS>
552-66-9

>  <Col>
10

>  <Formula>
C21H20O9

>  <ID>
T2901

>  <Index>
499

>  <MOLENAME>
Daidzin

>  <MolWt>
416.37

>  <Pathways>
Others

>  <Plate>
PLATE 007

>  <QR code>
1151479540

>  <Receptor>
Others

>  <Reference>
1. Zaheer M, Reddy VD, Giri CC. Nat Prod Res. 2015 Jul 8:1-6. 

>  <Row>
B

>  <SMILES>
OCC1OC(OC2=CC3=C(C=C2)C(=O)C(=CO3)C2=CC=C(O)C=C2)C(O)C(O)C1O

>  <Target>
Mitochondrial aldehyde dehydrogenase 2

>  <Weight>
10.4mg

$$$$
Lab-1.sdf
  ChemDraw05232018482D

 66 72  0  0  0  0  0  0  0  0999 V2000
   -2.4369    0.0000    0.0000 C   0  0  0  0  0  0  0  0  0  0  0  0
   -2.9688    0.0000    0.0000 C   0  0  0  0  0  0  0  0  0  0  0  0
   -2.6885    0.0000    0.0000 O   0  0  0  0  0  0  0  0  0  0  0  0
   -3.2203    0.0000    0.0000 C   0  0  0  0  0  0  0  0  0  0  0  0
   -2.9400    0.0000    0.0000 O   0  0  0  0  0  0  0  0  0  0  0  0
   -2.1279    0.0000    0.0000 C   0  0  0  0  0  0  0  0  0  0  0  0
   -1.5960    0.0000    0.0000 C   0  0  0  0  0  0  0  0  0  0  0  0
   -1.8763    0.0000    0.0000 O   0  0  0  0  0  0  0  0  0  0  0  0
   -0.7839    0.0000    0.0000 C   0  0  0  0  0  0  0  0  0  0  0  0
   -0.2521    0.0000    0.0000 O   0  0  0  0  0  0  0  0  0  0  0  0
   -0.5036    0.0000    0.0000 C   0  0  0  0  0  0  0  0  0  0  0  0
    0.3086    0.0000    0.0000 C   0  0  0  0  0  0  0  0  0  0  0  0
    0.5889    0.0000    0.0000 O   0  0  0  0  0  0  0  0  0  0  0  0
   -1.0355    0.0000    0.0000 O   0  0  0  0  0  0  0  0  0  0  0  0
   -1.8476    0.0000    0.0000 C   0  0  0  0  0  0  0  0  0  0  0  0
   -2.3794    0.0000    0.0000 O   0  0  0  0  0  0  0  0  0  0  0  0
   -2.0991    0.0000    0.0000 C   0  0  0  0  0  0  0  0  0  0  0  0
   -1.2870    0.0000    0.0000 C   0  0  0  0  0  0  0  0  0  0  0  0
   -1.0067    0.0000    0.0000 C   0  0  0  0  0  0  0  0  0  0  0  0
   -0.4749    0.0000    0.0000 C   0  0  0  0  0  0  0  0  0  0  0  0
   -1.5385    0.0000    0.0000 C   0  0  0  0  0  0  0  0  0  0  0  0
   -1.2582    0.0000    0.0000 C   0  0  0  0  0  0  0  0  0  0  0  0
   -0.4461    0.0000    0.0000 C   0  0  0  0  0  0  0  0  0  0  0  0
   -0.1658    0.0000    0.0000 O   0  0  0  0  0  0  0  0  0  0  0  0
    0.0858    0.0000    0.0000 C   0  0  0  0  0  0  0  0  0  0  0  0
    0.9104    0.0000    0.0000 C   0  0  0  0  0  0  0  0  0  0  0  0
    1.1397    0.0000    0.0000 C   0  0  0  0  0  0  0  0  0  0  0  0
    0.4569    0.0000    0.0000 C   0  0  0  0  0  0  0  0  0  0  0  0
   -0.1946    0.0000    0.0000 C   0  0  0  0  0  0  0  0  0  0  0  0
   -0.1350    0.0000    0.0000 C   0  0  0  0  0  0  0  0  0  0  0  0
    1.4168    0.0000    0.0000 C   0  0  0  0  0  0  0  0  0  0  0  0
    0.7654    0.0000    0.0000 C   0  0  0  0  0  0  0  0  0  0  0  0
    1.9231    0.0000    0.0000 C   0  0  0  0  0  0  0  0  0  0  0  0
    1.6122    0.0000    0.0000 C   0  0  0  0  0  0  0  0  0  0  0  0
    0.7950    0.0000    0.0000 C   0  0  0  0  0  0  0  0  0  0  0  0
    0.4841    0.0000    0.0000 C   0  0  0  0  0  0  0  0  0  0  0  0
   -0.3333    0.0000    0.0000 C   0  0  0  0  0  0  0  0  0  0  0  0
    0.9904    0.0000    0.0000 C   0  0  0  0  0  0  0  0  0  0  0  0
    2.0681    0.0000    0.0000 O   0  0  0  0  0  0  0  0  0  0  0  0
    2.8323    0.0000    0.0000 C   0  0  0  0  0  0  0  0  0  0  0  0
    2.9451    0.0000    0.0000 O   0  0  0  0  0  0  0  0  0  0  0  0
    3.7093    0.0000    0.0000 C   0  0  0  0  0  0  0  0  0  0  0  0
    3.8222    0.0000    0.0000 C   0  0  0  0  0  0  0  0  0  0  0  0
    4.5864    0.0000    0.0000 O   0  0  0  0  0  0  0  0  0  0  0  0
    4.3607    0.0000    0.0000 C   0  0  0  0  0  0  0  0  0  0  0  0
    5.1249    0.0000    0.0000 O   0  0  0  0  0  0  0  0  0  0  0  0
    4.2478    0.0000    0.0000 C   0  0  0  0  0  0  0  0  0  0  0  0
    4.8992    0.0000    0.0000 O   0  0  0  0  0  0  0  0  0  0  0  0
    3.4836    0.0000    0.0000 C   0  0  0  0  0  0  0  0  0  0  0  0
    3.3708    0.0000    0.0000 O   0  0  0  0  0  0  0  0  0  0  0  0
   -2.3506    0.0000    0.0000 C   0  0  0  0  0  0  0  0  0  0  0  0
   -2.0703    0.0000    0.0000 C   0  0  0  0  0  0  0  0  0  0  0  0
   -2.8824    0.0000    0.0000 C   0  0  0  0  0  0  0  0  0  0  0  0
   -3.6945    0.0000    0.0000 C   0  0  0  0  0  0  0  0  0  0  0  0
   -3.9748    0.0000    0.0000 C   0  0  0  0  0  0  0  0  0  0  0  0
   -4.7871    0.0000    0.0000 O   0  0  0  0  0  0  0  0  0  0  0  0
   -3.4430    0.0000    0.0000 C   0  0  0  0  0  0  0  0  0  0  0  0
   -4.1565    0.0000    0.0000 C   0  0  0  0  0  0  0  0  0  0  0  0
   -3.1590    0.0000    0.0000 C   0  0  0  0  0  0  0  0  0  0  0  0
   -2.6309    0.0000    0.0000 C   0  0  0  0  0  0  0  0  0  0  0  0
   -4.0324    0.0000    0.0000 C   0  0  0  0  0  0  0  0  0  0  0  0
   -4.5643    0.0000    0.0000 O   0  0  0  0  0  0  0  0  0  0  0  0
   -4.3128    0.0000    0.0000 C   0  0  0  0  0  0  0  0  0  0  0  0
   -5.1249    0.0000    0.0000 O   0  0  0  0  0  0  0  0  0  0  0  0
   -3.7809    0.0000    0.0000 C   0  0  0  0  0  0  0  0  0  0  0  0
   -4.0612    0.0000    0.0000 O   0  0  0  0  0  0  0  0  0  0  0  0
  1  2  1  0      
  2  3  1  0      
  3  4  1  0      
  4  5  1  0      
  5  6  1  0      
  6  7  1  0      
  7  8  1  0      
  7  9  1  0      
  9 10  1  0      
  9 11  1  0      
 11 12  1  0      
 12 13  1  0      
 11 14  1  0      
 14 15  1  0      
  6 15  1  0      
 15 16  1  0      
 16 17  1  0      
 17 18  1  0      
 18 19  1  0      
 19 20  1  0      
 19 21  1  0      
 21 22  1  0      
 22 23  1  0      
 23 24  1  0      
 23 25  1  0      
 25 26  1  0      
 26 27  1  0      
 27 28  1  0      
 28 29  1  0      
 19 29  1  0      
 25 29  1  0      
 29 30  1  0      
 26 31  1  0      
 31 32  1  0      
 31 33  1  0      
 33 34  1  0      
 34 35  1  0      
 35 36  2  0      
 36 37  1  0      
 36 38  1  0      
 31 39  1  0      
 39 40  1  0      
 40 41  1  0      
 41 42  1  0      
 42 43  1  0      
 43 44  1  0      
 42 45  1  0      
 45 46  1  0      
 45 47  1  0      
 47 48  1  0      
 47 49  1  0      
 40 49  1  0      
 49 50  1  0      
 21 51  1  0      
 51 52  1  0      
 51 53  1  0      
 53 54  1  0      
 54 55  1  0      
 55 56  1  0      
 55 57  1  0      
 57 58  1  0      
 57 59  1  0      
 57 60  1  0      
 17 60  1  0      
 51 60  1  0      
  4 61  1  0      
 61 62  1  0      
 61 63  1  0      
 63 64  1  0      
 63 65  1  0      
  2 65  1  0      
 65 66  1  0      
M  END
>  <Bioactivity>
Ginsenoside Re may have properties that inhibit or prevent the growth of tumors.

>  <CAS>
52286-59-6

>  <Col>
11

>  <Formula>
C48H82O18

>  <ID>
T2872

>  <Index>
500

>  <MOLENAME>
Ginsenoside Re

>  <MolWt>
947.14

>  <Pathways>
Others

>  <Plate>
PLATE 007

>  <QR code>
1151479541

>  <Receptor>
Others

>  <Reference>
1. Nam Y, et al. J Appl Toxicol. 2015 Aug;35(8):927-44.

>  <Row>
B

>  <SMILES>
CC1OC(OC2C(O)C(O)C(CO)OC2OC2CC3(C)C(CC(O)C4C(CCC34C)C(C)(CCC=C(C)C)OC3OC(CO)C(O)C(O)C3O)C3(C)CCC(O)C(C)(C)C23)C(O)C(O)C1O

>  <Target>
Others

>  <Weight>
10.3mg

$$$$
Lab-1.sdf
  ChemDraw05232018482D

 14 16  0  0  0  0  0  0  0  0999 V2000
   -2.4209    0.0000    0.0000 O   0  0  0  0  0  0  0  0  0  0  0  0
   -1.7064    0.0000    0.0000 C   0  0  0  0  0  0  0  0  0  0  0  0
   -0.9921    0.0000    0.0000 O   0  0  0  0  0  0  0  0  0  0  0  0
   -0.2775    0.0000    0.0000 C   0  0  0  0  0  0  0  0  0  0  0  0
    0.4369    0.0000    0.0000 C   0  0  0  0  0  0  0  0  0  0  0  0
    1.1514    0.0000    0.0000 C   0  0  0  0  0  0  0  0  0  0  0  0
    1.1514    0.0000    0.0000 C   0  0  0  0  0  0  0  0  0  0  0  0
    1.9360    0.0000    0.0000 C   0  0  0  0  0  0  0  0  0  0  0  0
    2.4209    0.0000    0.0000 C   0  0  0  0  0  0  0  0  0  0  0  0
    1.9360    0.0000    0.0000 O   0  0  0  0  0  0  0  0  0  0  0  0
    0.4369    0.0000    0.0000 C   0  0  0  0  0  0  0  0  0  0  0  0
   -0.2775    0.0000    0.0000 C   0  0  0  0  0  0  0  0  0  0  0  0
   -0.9921    0.0000    0.0000 C   0  0  0  0  0  0  0  0  0  0  0  0
   -1.7064    0.0000    0.0000 C   0  0  0  0  0  0  0  0  0  0  0  0
  1  2  2  0      
  2  3  1  0      
  3  4  1  0      
  4  5  2  0      
  5  6  1  0      
  6  7  2  0      
  7  8  1  0      
  8  9  2  0      
  9 10  1  0      
  6 10  1  0      
  7 11  1  0      
 11 12  2  0      
  4 12  1  0      
 12 13  1  0      
 13 14  2  0      
  2 14  1  0      
M  END
>  <Bioactivity>
Psoralen is used as photochemical probe in studies of DNA mutation and repair mechanisms. Causes photosensitization in human.

>  <CAS>
66-97-7

>  <Col>
2

>  <Formula>
C11H6O3

>  <ID>
T2942

>  <Index>
501

>  <MOLENAME>
Psoralen

>  <MolWt>
186.17

>  <Pathways>
Others

>  <Plate>
PLATE 007

>  <QR code>
1151479529

>  <Receptor>
Others

>  <Reference>
1. Yang L, Sun X, Geng X. Pak J Pharm Sci. 2015 Mar;28(2 Suppl):667-70.

>  <Row>
C

>  <SMILES>
O=C1OC2=CC3=C(C=CO3)C=C2C=C1

>  <Target>
Others

>  <Weight>
10.3mg

$$$$
Lab-1.sdf
  ChemDraw05232018482D

 23 25  0  0  0  0  0  0  0  0999 V2000
   -2.5006    0.0000    0.0000 C   0  0  0  0  0  0  0  0  0  0  0  0
   -1.7862    0.0000    0.0000 O   0  0  0  0  0  0  0  0  0  0  0  0
   -1.7862    0.0000    0.0000 C   0  0  0  0  0  0  0  0  0  0  0  0
   -2.5006    0.0000    0.0000 C   0  0  0  0  0  0  0  0  0  0  0  0
   -3.2151    0.0000    0.0000 O   0  0  0  0  0  0  0  0  0  0  0  0
   -2.5006    0.0000    0.0000 C   0  0  0  0  0  0  0  0  0  0  0  0
   -1.7862    0.0000    0.0000 C   0  0  0  0  0  0  0  0  0  0  0  0
   -1.0717    0.0000    0.0000 C   0  0  0  0  0  0  0  0  0  0  0  0
   -1.0717    0.0000    0.0000 C   0  0  0  0  0  0  0  0  0  0  0  0
   -0.3572    0.0000    0.0000 C   0  0  0  0  0  0  0  0  0  0  0  0
   -0.3572    0.0000    0.0000 C   0  0  0  0  0  0  0  0  0  0  0  0
   -1.0717    0.0000    0.0000 O   0  0  0  0  0  0  0  0  0  0  0  0
    0.3572    0.0000    0.0000 C   0  0  0  0  0  0  0  0  0  0  0  0
    0.3572    0.0000    0.0000 O   0  0  0  0  0  0  0  0  0  0  0  0
    1.0717    0.0000    0.0000 C   0  0  0  0  0  0  0  0  0  0  0  0
    1.7862    0.0000    0.0000 C   0  0  0  0  0  0  0  0  0  0  0  0
    1.7862    0.0000    0.0000 O   0  0  0  0  0  0  0  0  0  0  0  0
    2.5007    0.0000    0.0000 C   0  0  0  0  0  0  0  0  0  0  0  0
    2.5007    0.0000    0.0000 C   0  0  0  0  0  0  0  0  0  0  0  0
    3.2151    0.0000    0.0000 O   0  0  0  0  0  0  0  0  0  0  0  0
    1.7862    0.0000    0.0000 C   0  0  0  0  0  0  0  0  0  0  0  0
    1.0717    0.0000    0.0000 C   0  0  0  0  0  0  0  0  0  0  0  0
    0.3572    0.0000    0.0000 O   0  0  0  0  0  0  0  0  0  0  0  0
  1  2  1  0      
  2  3  1  0      
  3  4  2  0      
  4  5  1  0      
  4  6  1  0      
  6  7  2  0      
  7  8  1  0      
  8  9  2  0      
  3  9  1  0      
  8 10  1  0      
 10 11  2  0      
 11 12  1  0      
 11 13  1  0      
 13 14  2  0      
 13 15  1  0      
 15 16  2  0      
 16 17  1  0      
 16 18  1  0      
 18 19  2  0      
 19 20  1  0      
 19 21  1  0      
 21 22  2  0      
 15 22  1  0      
 22 23  1  0      
 10 23  1  0      
M  END
>  <Bioactivity>
Red turnip,goldenrod,mustard leaf,ginkgo biloba.

>  <CAS>
480-19-3

>  <Col>
3

>  <Formula>
C16H12O7

>  <ID>
T2836

>  <Index>
502

>  <MOLENAME>
Isorhamnetin

>  <MolWt>
316.27

>  <Pathways>
Others

>  <Plate>
PLATE 007

>  <QR code>
1151479528

>  <Receptor>
Others

>  <Reference>
1. Han X, et al. Biomol Ther (Seoul). 2015 Jul;23(4):357-66.

>  <Row>
C

>  <SMILES>
COC1=C(O)C=CC(=C1)C1=C(O)C(=O)C2=C(O)C=C(O)C=C2O1

>  <Target>
Others

>  <Weight>
10.3mg

$$$$
Lab-1.sdf
  ChemDraw05232018482D

 34 37  0  0  0  0  0  0  0  0999 V2000
   -4.8341    0.0000    0.0000 C   0  0  0  0  0  0  0  0  0  0  0  0
   -4.0169    0.0000    0.0000 C   0  0  0  0  0  0  0  0  0  0  0  0
   -4.1297    0.0000    0.0000 C   0  0  0  0  0  0  0  0  0  0  0  0
   -3.9040    0.0000    0.0000 O   0  0  0  0  0  0  0  0  0  0  0  0
   -3.1996    0.0000    0.0000 C   0  0  0  0  0  0  0  0  0  0  0  0
   -2.6933    0.0000    0.0000 C   0  0  0  0  0  0  0  0  0  0  0  0
   -1.8759    0.0000    0.0000 C   0  0  0  0  0  0  0  0  0  0  0  0
   -1.5650    0.0000    0.0000 O   0  0  0  0  0  0  0  0  0  0  0  0
   -1.3696    0.0000    0.0000 C   0  0  0  0  0  0  0  0  0  0  0  0
   -0.7183    0.0000    0.0000 C   0  0  0  0  0  0  0  0  0  0  0  0
   -2.0209    0.0000    0.0000 O   0  0  0  0  0  0  0  0  0  0  0  0
   -0.8632    0.0000    0.0000 C   0  0  0  0  0  0  0  0  0  0  0  0
   -1.0925    0.0000    0.0000 C   0  0  0  0  0  0  0  0  0  0  0  0
   -0.4097    0.0000    0.0000 C   0  0  0  0  0  0  0  0  0  0  0  0
    0.2416    0.0000    0.0000 C   0  0  0  0  0  0  0  0  0  0  0  0
    0.4393    0.0000    0.0000 O   0  0  0  0  0  0  0  0  0  0  0  0
    1.0538    0.0000    0.0000 C   0  0  0  0  0  0  0  0  0  0  0  0
    1.3340    0.0000    0.0000 C   0  0  0  0  0  0  0  0  0  0  0  0
    2.1462    0.0000    0.0000 C   0  0  0  0  0  0  0  0  0  0  0  0
    2.4266    0.0000    0.0000 O   0  0  0  0  0  0  0  0  0  0  0  0
    2.6781    0.0000    0.0000 C   0  0  0  0  0  0  0  0  0  0  0  0
    3.4902    0.0000    0.0000 C   0  0  0  0  0  0  0  0  0  0  0  0
    4.0220    0.0000    0.0000 C   0  0  0  0  0  0  0  0  0  0  0  0
    4.8341    0.0000    0.0000 O   0  0  0  0  0  0  0  0  0  0  0  0
    3.7417    0.0000    0.0000 C   0  0  0  0  0  0  0  0  0  0  0  0
    4.2735    0.0000    0.0000 O   0  0  0  0  0  0  0  0  0  0  0  0
    2.9296    0.0000    0.0000 C   0  0  0  0  0  0  0  0  0  0  0  0
    2.3978    0.0000    0.0000 C   0  0  0  0  0  0  0  0  0  0  0  0
    2.1174    0.0000    0.0000 C   0  0  0  0  0  0  0  0  0  0  0  0
    1.5856    0.0000    0.0000 C   0  0  0  0  0  0  0  0  0  0  0  0
    1.3053    0.0000    0.0000 C   0  0  0  0  0  0  0  0  0  0  0  0
    0.4932    0.0000    0.0000 C   0  0  0  0  0  0  0  0  0  0  0  0
   -0.0387    0.0000    0.0000 C   0  0  0  0  0  0  0  0  0  0  0  0
   -0.3985    0.0000    0.0000 C   0  0  0  0  0  0  0  0  0  0  0  0
  1  2  1  0      
  2  3  1  0      
  2  4  1  0      
  2  5  1  0      
  5  6  1  0      
  6  7  1  0      
  7  8  1  0      
  7  9  1  0      
  9 10  1  0      
  9 11  1  0      
  9 12  1  0      
 12 13  1  0      
 13 14  1  0      
 14 15  1  0      
 15 16  1  0      
 15 17  1  0      
 17 18  2  0      
 18 19  1  0      
 19 20  2  0      
 19 21  1  0      
 21 22  1  0      
 22 23  1  0      
 23 24  1  0      
 23 25  1  0      
 25 26  1  0      
 25 27  1  0      
 27 28  1  0      
 21 28  1  0      
 28 29  1  0      
 28 30  1  0      
 17 30  1  0      
 30 31  1  0      
 31 32  1  0      
 32 33  1  0      
 12 33  1  0      
 15 33  1  0      
 33 34  1  0      
M  END
>  <Bioactivity>
Extracted from Cyanotis,arachnoidea,C,B,Clarke;Suitability:Methanol,DMSO;Store the product in sealed,cool and dry condition

>  <CAS>
5289-74-7

>  <Col>
4

>  <Formula>
C27H44O7

>  <ID>
T2881

>  <Index>
503

>  <MOLENAME>
Ecdysterone

>  <MolWt>
480.65

>  <Pathways>
Others

>  <Plate>
PLATE 007

>  <QR code>
1151479527

>  <Receptor>
Others

>  <Reference>
1. Kizelsztein P, et al. Am J Physiol Endocrinol Metab, 2009, 296(3), E433-439.

>  <Row>
C

>  <SMILES>
CC(C)(O)CCC(O)C(C)(O)C1CCC2(O)C3=CC(=O)C4CC(O)C(O)CC4(C)C3CCC12C

>  <Target>
Others

>  <Weight>
10.2mg

$$$$
Lab-1.sdf
  ChemDraw05232018482D

 63 63  0  0  0  0  0  0  0  0999 V2000
   -7.1447    0.0000    0.0000 C   0  0  0  0  0  0  0  0  0  0  0  0
   -6.4302    0.0000    0.0000 O   0  0  0  0  0  0  0  0  0  0  0  0
   -6.4302    0.0000    0.0000 C   0  0  0  0  0  0  0  0  0  0  0  0
   -5.7158    0.0000    0.0000 C   0  0  0  0  0  0  0  0  0  0  0  0
   -5.0013    0.0000    0.0000 O   0  0  0  0  0  0  0  0  0  0  0  0
   -4.2868    0.0000    0.0000 C   0  0  0  0  0  0  0  0  0  0  0  0
   -5.7158    0.0000    0.0000 C   0  0  0  0  0  0  0  0  0  0  0  0
   -5.0013    0.0000    0.0000 O   0  0  0  0  0  0  0  0  0  0  0  0
   -6.4302    0.0000    0.0000 C   0  0  0  0  0  0  0  0  0  0  0  0
   -6.4302    0.0000    0.0000 C   0  0  0  0  0  0  0  0  0  0  0  0
   -5.7158    0.0000    0.0000 C   0  0  0  0  0  0  0  0  0  0  0  0
   -5.7158    0.0000    0.0000 C   0  0  0  0  0  0  0  0  0  0  0  0
   -6.4302    0.0000    0.0000 C   0  0  0  0  0  0  0  0  0  0  0  0
   -5.0013    0.0000    0.0000 C   0  0  0  0  0  0  0  0  0  0  0  0
   -5.0013    0.0000    0.0000 C   0  0  0  0  0  0  0  0  0  0  0  0
   -4.2868    0.0000    0.0000 C   0  0  0  0  0  0  0  0  0  0  0  0
   -4.2868    0.0000    0.0000 C   0  0  0  0  0  0  0  0  0  0  0  0
   -5.0013    0.0000    0.0000 C   0  0  0  0  0  0  0  0  0  0  0  0
   -3.5723    0.0000    0.0000 C   0  0  0  0  0  0  0  0  0  0  0  0
   -3.5723    0.0000    0.0000 C   0  0  0  0  0  0  0  0  0  0  0  0
   -2.8579    0.0000    0.0000 C   0  0  0  0  0  0  0  0  0  0  0  0
   -2.8579    0.0000    0.0000 C   0  0  0  0  0  0  0  0  0  0  0  0
   -3.5723    0.0000    0.0000 C   0  0  0  0  0  0  0  0  0  0  0  0
   -2.1434    0.0000    0.0000 C   0  0  0  0  0  0  0  0  0  0  0  0
   -2.1434    0.0000    0.0000 C   0  0  0  0  0  0  0  0  0  0  0  0
   -1.4289    0.0000    0.0000 C   0  0  0  0  0  0  0  0  0  0  0  0
   -1.4289    0.0000    0.0000 C   0  0  0  0  0  0  0  0  0  0  0  0
   -2.1434    0.0000    0.0000 C   0  0  0  0  0  0  0  0  0  0  0  0
   -0.7145    0.0000    0.0000 C   0  0  0  0  0  0  0  0  0  0  0  0
   -0.7145    0.0000    0.0000 C   0  0  0  0  0  0  0  0  0  0  0  0
    0.0000    0.0000    0.0000 C   0  0  0  0  0  0  0  0  0  0  0  0
    0.0000    0.0000    0.0000 C   0  0  0  0  0  0  0  0  0  0  0  0
   -0.7145    0.0000    0.0000 C   0  0  0  0  0  0  0  0  0  0  0  0
    0.7145    0.0000    0.0000 C   0  0  0  0  0  0  0  0  0  0  0  0
    0.7145    0.0000    0.0000 C   0  0  0  0  0  0  0  0  0  0  0  0
    1.4290    0.0000    0.0000 C   0  0  0  0  0  0  0  0  0  0  0  0
    1.4290    0.0000    0.0000 C   0  0  0  0  0  0  0  0  0  0  0  0
    0.7145    0.0000    0.0000 C   0  0  0  0  0  0  0  0  0  0  0  0
    2.1434    0.0000    0.0000 C   0  0  0  0  0  0  0  0  0  0  0  0
    2.1434    0.0000    0.0000 C   0  0  0  0  0  0  0  0  0  0  0  0
    2.8579    0.0000    0.0000 C   0  0  0  0  0  0  0  0  0  0  0  0
    2.8579    0.0000    0.0000 C   0  0  0  0  0  0  0  0  0  0  0  0
    2.1434    0.0000    0.0000 C   0  0  0  0  0  0  0  0  0  0  0  0
    3.5724    0.0000    0.0000 C   0  0  0  0  0  0  0  0  0  0  0  0
    3.5724    0.0000    0.0000 C   0  0  0  0  0  0  0  0  0  0  0  0
    4.2868    0.0000    0.0000 C   0  0  0  0  0  0  0  0  0  0  0  0
    4.2868    0.0000    0.0000 C   0  0  0  0  0  0  0  0  0  0  0  0
    3.5724    0.0000    0.0000 C   0  0  0  0  0  0  0  0  0  0  0  0
    5.0013    0.0000    0.0000 C   0  0  0  0  0  0  0  0  0  0  0  0
    5.0013    0.0000    0.0000 C   0  0  0  0  0  0  0  0  0  0  0  0
    5.7158    0.0000    0.0000 C   0  0  0  0  0  0  0  0  0  0  0  0
    5.7158    0.0000    0.0000 C   0  0  0  0  0  0  0  0  0  0  0  0
    5.0013    0.0000    0.0000 C   0  0  0  0  0  0  0  0  0  0  0  0
    6.4302    0.0000    0.0000 C   0  0  0  0  0  0  0  0  0  0  0  0
    6.4302    0.0000    0.0000 C   0  0  0  0  0  0  0  0  0  0  0  0
    7.1447    0.0000    0.0000 C   0  0  0  0  0  0  0  0  0  0  0  0
    7.1447    0.0000    0.0000 C   0  0  0  0  0  0  0  0  0  0  0  0
    7.8592    0.0000    0.0000 C   0  0  0  0  0  0  0  0  0  0  0  0
    6.4302    0.0000    0.0000 C   0  0  0  0  0  0  0  0  0  0  0  0
   -7.1447    0.0000    0.0000 C   0  0  0  0  0  0  0  0  0  0  0  0
   -7.8592    0.0000    0.0000 C   0  0  0  0  0  0  0  0  0  0  0  0
   -7.1447    0.0000    0.0000 C   0  0  0  0  0  0  0  0  0  0  0  0
   -7.8592    0.0000    0.0000 O   0  0  0  0  0  0  0  0  0  0  0  0
  1  2  1  0      
  2  3  1  0      
  3  4  2  0      
  4  5  1  0      
  5  6  1  0      
  4  7  1  0      
  7  8  2  0      
  7  9  1  0      
  9 10  1  0      
 11 10  1  4      
 11 12  2  0      
 12 13  1  0      
 12 14  1  0      
 14 15  1  0      
 16 15  1  4      
 16 17  2  0      
 17 18  1  0      
 17 19  1  0      
 19 20  1  0      
 21 20  1  4      
 21 22  2  0      
 22 23  1  0      
 22 24  1  0      
 24 25  1  0      
 26 25  1  4      
 26 27  2  0      
 27 28  1  0      
 27 29  1  0      
 29 30  1  0      
 31 30  1  4      
 31 32  2  0      
 32 33  1  0      
 32 34  1  0      
 34 35  1  0      
 36 35  1  4      
 36 37  2  0      
 37 38  1  0      
 37 39  1  0      
 39 40  1  0      
 41 40  1  4      
 41 42  2  0      
 42 43  1  0      
 42 44  1  0      
 44 45  1  0      
 46 45  1  4      
 46 47  2  0      
 47 48  1  0      
 47 49  1  0      
 49 50  1  0      
 51 50  1  4      
 51 52  2  0      
 52 53  1  0      
 52 54  1  0      
 54 55  1  0      
 55 56  1  0      
 56 57  2  0      
 57 58  1  0      
 57 59  1  0      
  9 60  2  0      
 60 61  1  0      
 60 62  1  0      
  3 62  1  0      
 62 63  2  0      
M  END
>  <Bioactivity>
Extracted from Coenzyme Q10;Suitability:Chloroform,benzene and carbon tetrachloride;Store the product in sealed,cool and dry condition

>  <CAS>
303-98-0

>  <Col>
5

>  <Formula>
C59H90O4

>  <ID>
T2796

>  <Index>
504

>  <MOLENAME>
Coenzyme Q10 (CoQ10)

>  <MolWt>
863.37

>  <Pathways>
Others

>  <Plate>
PLATE 007

>  <QR code>
1151479526

>  <Receptor>
Others

>  <Reference>
1. Crane FL, J Am Coll Nutr, 2001, 20(6), 591-598.

>  <Row>
C

>  <SMILES>
COC1=C(OC)C(=O)C(CC=C(C)CCC=C(C)CCC=C(C)CCC=C(C)CCC=C(C)CCC=C(C)CCC=C(C)CCC=C(C)CCC=C(C)CCC=C(C)C)=C(C)C1=O

>  <Target>
Others

>  <Weight>
9.8mg

$$$$
Lab-1.sdf
  ChemDraw05232018482D

 32 35  0  0  0  0  0  0  0  0999 V2000
   -3.5723    0.0000    0.0000 O   0  0  0  0  0  0  0  0  0  0  0  0
   -2.8578    0.0000    0.0000 C   0  0  0  0  0  0  0  0  0  0  0  0
   -2.8578    0.0000    0.0000 C   0  0  0  0  0  0  0  0  0  0  0  0
   -2.1435    0.0000    0.0000 C   0  0  0  0  0  0  0  0  0  0  0  0
   -2.1435    0.0000    0.0000 O   0  0  0  0  0  0  0  0  0  0  0  0
   -1.4289    0.0000    0.0000 C   0  0  0  0  0  0  0  0  0  0  0  0
   -0.7145    0.0000    0.0000 C   0  0  0  0  0  0  0  0  0  0  0  0
    0.0001    0.0000    0.0000 C   0  0  0  0  0  0  0  0  0  0  0  0
    0.7144    0.0000    0.0000 O   0  0  0  0  0  0  0  0  0  0  0  0
    0.7144    0.0000    0.0000 C   0  0  0  0  0  0  0  0  0  0  0  0
    0.0001    0.0000    0.0000 O   0  0  0  0  0  0  0  0  0  0  0  0
    1.4289    0.0000    0.0000 C   0  0  0  0  0  0  0  0  0  0  0  0
    1.4289    0.0000    0.0000 C   0  0  0  0  0  0  0  0  0  0  0  0
    2.1434    0.0000    0.0000 C   0  0  0  0  0  0  0  0  0  0  0  0
    2.1434    0.0000    0.0000 O   0  0  0  0  0  0  0  0  0  0  0  0
    2.8578    0.0000    0.0000 C   0  0  0  0  0  0  0  0  0  0  0  0
    3.5723    0.0000    0.0000 O   0  0  0  0  0  0  0  0  0  0  0  0
    2.8578    0.0000    0.0000 C   0  0  0  0  0  0  0  0  0  0  0  0
    3.5723    0.0000    0.0000 O   0  0  0  0  0  0  0  0  0  0  0  0
    2.1434    0.0000    0.0000 C   0  0  0  0  0  0  0  0  0  0  0  0
    0.0001    0.0000    0.0000 C   0  0  0  0  0  0  0  0  0  0  0  0
   -0.7145    0.0000    0.0000 O   0  0  0  0  0  0  0  0  0  0  0  0
   -1.4289    0.0000    0.0000 C   0  0  0  0  0  0  0  0  0  0  0  0
   -2.1435    0.0000    0.0000 C   0  0  0  0  0  0  0  0  0  0  0  0
    0.7144    0.0000    0.0000 C   0  0  0  0  0  0  0  0  0  0  0  0
    1.4289    0.0000    0.0000 C   0  0  0  0  0  0  0  0  0  0  0  0
    2.1434    0.0000    0.0000 C   0  0  0  0  0  0  0  0  0  0  0  0
    2.8578    0.0000    0.0000 O   0  0  0  0  0  0  0  0  0  0  0  0
    2.1434    0.0000    0.0000 C   0  0  0  0  0  0  0  0  0  0  0  0
    2.8578    0.0000    0.0000 O   0  0  0  0  0  0  0  0  0  0  0  0
    1.4289    0.0000    0.0000 C   0  0  0  0  0  0  0  0  0  0  0  0
    0.7144    0.0000    0.0000 C   0  0  0  0  0  0  0  0  0  0  0  0
  1  2  1  0      
  2  3  2  0      
  3  4  1  0      
  4  5  1  0      
  4  6  2  0      
  6  7  1  0      
  7  8  1  0      
  8  9  1  0      
  9 10  1  0      
 10 11  2  0      
 10 12  1  0      
 12 13  2  0      
 13 14  1  0      
 14 15  1  0      
 14 16  2  0      
 16 17  1  0      
 16 18  1  0      
 18 19  1  0      
 18 20  2  0      
 12 20  1  0      
  8 21  1  0      
 21 22  1  0      
 22 23  1  0      
  6 23  1  0      
 23 24  2  0      
  2 24  1  0      
 21 25  1  0      
 25 26  2  0      
 26 27  1  0      
 27 28  1  0      
 27 29  2  0      
 29 30  1  0      
 29 31  1  0      
 31 32  2  0      
 25 32  1  0      
M  END
>  <Bioactivity>
(-)-Epicatechin gallate is a flavan-3-ol, a type of flavonoid, present in green tea.

>  <CAS>
1257-08-5

>  <Col>
6

>  <Formula>
C22H18O10

>  <ID>
T2732

>  <Index>
505

>  <MOLENAME>
(-)-Epicatechin gallate

>  <MolWt>
442.38

>  <Pathways>
Others

>  <Plate>
PLATE 007

>  <QR code>
1151479525

>  <Receptor>
Others

>  <Reference>
1. Rosado H, et al. Int J Mol Sci. 2015 Jul 23;16(8):16710-27. 

>  <Row>
C

>  <SMILES>
OC1=CC(O)=C2CC(OC(=O)C3=CC(O)=C(O)C(O)=C3)C(OC2=C1)C1=CC(O)=C(O)C=C1

>  <Target>
Others

>  <Weight>
10.2mg

$$$$
Lab-1.sdf
  ChemDraw05232018482D

 38 41  0  0  0  0  0  0  0  0999 V2000
    4.0673    0.0000    0.0000 C   0  0  0  0  0  0  0  0  0  0  0  0
    4.0673    0.0000    0.0000 O   0  0  0  0  0  0  0  0  0  0  0  0
    3.3528    0.0000    0.0000 C   0  0  0  0  0  0  0  0  0  0  0  0
    3.3528    0.0000    0.0000 C   0  0  0  0  0  0  0  0  0  0  0  0
    4.0673    0.0000    0.0000 O   0  0  0  0  0  0  0  0  0  0  0  0
    4.0673    0.0000    0.0000 C   0  0  0  0  0  0  0  0  0  0  0  0
    2.6383    0.0000    0.0000 C   0  0  0  0  0  0  0  0  0  0  0  0
    1.9239    0.0000    0.0000 C   0  0  0  0  0  0  0  0  0  0  0  0
    1.2094    0.0000    0.0000 C   0  0  0  0  0  0  0  0  0  0  0  0
    1.2094    0.0000    0.0000 C   0  0  0  0  0  0  0  0  0  0  0  0
    1.8768    0.0000    0.0000 C   0  0  0  0  0  0  0  0  0  0  0  0
    1.6219    0.0000    0.0000 O   0  0  0  0  0  0  0  0  0  0  0  0
    0.7969    0.0000    0.0000 C   0  0  0  0  0  0  0  0  0  0  0  0
    0.3120    0.0000    0.0000 O   0  0  0  0  0  0  0  0  0  0  0  0
    0.5419    0.0000    0.0000 C   0  0  0  0  0  0  0  0  0  0  0  0
   -0.2427    0.0000    0.0000 C   0  0  0  0  0  0  0  0  0  0  0  0
   -0.4142    0.0000    0.0000 C   0  0  0  0  0  0  0  0  0  0  0  0
   -1.1988    0.0000    0.0000 C   0  0  0  0  0  0  0  0  0  0  0  0
   -1.3703    0.0000    0.0000 C   0  0  0  0  0  0  0  0  0  0  0  0
   -2.1550    0.0000    0.0000 O   0  0  0  0  0  0  0  0  0  0  0  0
   -2.7681    0.0000    0.0000 C   0  0  0  0  0  0  0  0  0  0  0  0
   -0.7573    0.0000    0.0000 C   0  0  0  0  0  0  0  0  0  0  0  0
   -0.9288    0.0000    0.0000 O   0  0  0  0  0  0  0  0  0  0  0  0
   -1.7134    0.0000    0.0000 C   0  0  0  0  0  0  0  0  0  0  0  0
   -2.3265    0.0000    0.0000 O   0  0  0  0  0  0  0  0  0  0  0  0
   -3.1111    0.0000    0.0000 C   0  0  0  0  0  0  0  0  0  0  0  0
   -3.7242    0.0000    0.0000 C   0  0  0  0  0  0  0  0  0  0  0  0
   -3.5527    0.0000    0.0000 O   0  0  0  0  0  0  0  0  0  0  0  0
   -3.2826    0.0000    0.0000 C   0  0  0  0  0  0  0  0  0  0  0  0
   -4.0673    0.0000    0.0000 O   0  0  0  0  0  0  0  0  0  0  0  0
   -2.6696    0.0000    0.0000 C   0  0  0  0  0  0  0  0  0  0  0  0
   -2.8411    0.0000    0.0000 O   0  0  0  0  0  0  0  0  0  0  0  0
   -1.8849    0.0000    0.0000 C   0  0  0  0  0  0  0  0  0  0  0  0
   -1.2718    0.0000    0.0000 O   0  0  0  0  0  0  0  0  0  0  0  0
    0.0274    0.0000    0.0000 C   0  0  0  0  0  0  0  0  0  0  0  0
    0.1989    0.0000    0.0000 C   0  0  0  0  0  0  0  0  0  0  0  0
    1.9239    0.0000    0.0000 C   0  0  0  0  0  0  0  0  0  0  0  0
    2.6383    0.0000    0.0000 C   0  0  0  0  0  0  0  0  0  0  0  0
  1  2  1  0      
  2  3  1  0      
  3  4  2  0      
  4  5  1  0      
  5  6  1  0      
  4  7  1  0      
  7  8  2  0      
  8  9  1  0      
  9 10  1  0      
 10 11  1  0      
 11 12  1  0      
 12 13  1  0      
 13 14  2  0      
 13 15  1  0      
 10 15  1  0      
 15 16  1  0      
 16 17  1  0      
 17 18  2  0      
 18 19  1  0      
 19 20  1  0      
 20 21  1  0      
 19 22  2  0      
 22 23  1  0      
 23 24  1  0      
 24 25  1  0      
 25 26  1  0      
 26 27  1  0      
 27 28  1  0      
 26 29  1  0      
 29 30  1  0      
 29 31  1  0      
 31 32  1  0      
 31 33  1  0      
 24 33  1  0      
 33 34  1  0      
 22 35  1  0      
 35 36  2  0      
 17 36  1  0      
  8 37  1  0      
 37 38  2  0      
  3 38  1  0      
M  END
>  <Bioactivity>
Arctiin(NSC 315527), a plant lignan that can be extracted from the Arctium lappa (burdock) seeds, is a possible environmental endocrine disruptor compounds and have been shown to influence sex hormone
 metabolism as well as protein synthesis, steroid biosynthesis.

>  <CAS>
20362-31-6

>  <Col>
7

>  <Formula>
C27H34O11

>  <ID>
T2766

>  <Index>
506

>  <MOLENAME>
Arctiin

>  <MolWt>
534.55

>  <Pathways>
Others

>  <Plate>
PLATE 007

>  <QR code>
1151479524

>  <Receptor>
Others

>  <Reference>
1. Min B, et al. Nutr Res Pract. 2014 Dec;8(6):655-61.

>  <Row>
C

>  <SMILES>
COC1=C(OC)C=C(CC2COC(=O)C2CC2=CC(OC)=C(OC3OC(CO)C(O)C(O)C3O)C=C2)C=C1

>  <Target>
Others

>  <Weight>
10.3mg

$$$$
Lab-1.sdf
  ChemDraw05232018482D

 48 52  0  0  0  0  0  0  0  0999 V2000
   -5.0012    0.0000    0.0000 C   0  0  0  0  0  0  0  0  0  0  0  0
   -4.2868    0.0000    0.0000 O   0  0  0  0  0  0  0  0  0  0  0  0
   -3.5723    0.0000    0.0000 C   0  0  0  0  0  0  0  0  0  0  0  0
   -2.8578    0.0000    0.0000 C   0  0  0  0  0  0  0  0  0  0  0  0
   -2.1433    0.0000    0.0000 C   0  0  0  0  0  0  0  0  0  0  0  0
   -2.1433    0.0000    0.0000 C   0  0  0  0  0  0  0  0  0  0  0  0
   -2.8578    0.0000    0.0000 C   0  0  0  0  0  0  0  0  0  0  0  0
   -3.5723    0.0000    0.0000 C   0  0  0  0  0  0  0  0  0  0  0  0
   -1.4290    0.0000    0.0000 C   0  0  0  0  0  0  0  0  0  0  0  0
   -1.4290    0.0000    0.0000 C   0  0  0  0  0  0  0  0  0  0  0  0
   -2.1433    0.0000    0.0000 O   0  0  0  0  0  0  0  0  0  0  0  0
   -2.1433    0.0000    0.0000 C   0  0  0  0  0  0  0  0  0  0  0  0
   -1.4290    0.0000    0.0000 O   0  0  0  0  0  0  0  0  0  0  0  0
   -1.4290    0.0000    0.0000 C   0  0  0  0  0  0  0  0  0  0  0  0
   -0.7145    0.0000    0.0000 C   0  0  0  0  0  0  0  0  0  0  0  0
   -2.1433    0.0000    0.0000 C   0  0  0  0  0  0  0  0  0  0  0  0
   -2.1433    0.0000    0.0000 O   0  0  0  0  0  0  0  0  0  0  0  0
   -2.8578    0.0000    0.0000 C   0  0  0  0  0  0  0  0  0  0  0  0
   -3.5723    0.0000    0.0000 O   0  0  0  0  0  0  0  0  0  0  0  0
   -2.8578    0.0000    0.0000 C   0  0  0  0  0  0  0  0  0  0  0  0
   -3.5723    0.0000    0.0000 O   0  0  0  0  0  0  0  0  0  0  0  0
   -0.7145    0.0000    0.0000 C   0  0  0  0  0  0  0  0  0  0  0  0
   -0.7145    0.0000    0.0000 O   0  0  0  0  0  0  0  0  0  0  0  0
   -0.0000    0.0000    0.0000 C   0  0  0  0  0  0  0  0  0  0  0  0
   -0.0000    0.0000    0.0000 C   0  0  0  0  0  0  0  0  0  0  0  0
   -0.7145    0.0000    0.0000 O   0  0  0  0  0  0  0  0  0  0  0  0
    0.7144    0.0000    0.0000 C   0  0  0  0  0  0  0  0  0  0  0  0
    0.7144    0.0000    0.0000 C   0  0  0  0  0  0  0  0  0  0  0  0
    1.4289    0.0000    0.0000 C   0  0  0  0  0  0  0  0  0  0  0  0
    1.4289    0.0000    0.0000 C   0  0  0  0  0  0  0  0  0  0  0  0
    2.1433    0.0000    0.0000 C   0  0  0  0  0  0  0  0  0  0  0  0
    0.7144    0.0000    0.0000 C   0  0  0  0  0  0  0  0  0  0  0  0
    1.4289    0.0000    0.0000 C   0  0  0  0  0  0  0  0  0  0  0  0
    2.1433    0.0000    0.0000 O   0  0  0  0  0  0  0  0  0  0  0  0
    2.8578    0.0000    0.0000 C   0  0  0  0  0  0  0  0  0  0  0  0
    3.5722    0.0000    0.0000 O   0  0  0  0  0  0  0  0  0  0  0  0
    4.2867    0.0000    0.0000 C   0  0  0  0  0  0  0  0  0  0  0  0
    5.0012    0.0000    0.0000 C   0  0  0  0  0  0  0  0  0  0  0  0
    5.0012    0.0000    0.0000 O   0  0  0  0  0  0  0  0  0  0  0  0
    4.2867    0.0000    0.0000 C   0  0  0  0  0  0  0  0  0  0  0  0
    5.0012    0.0000    0.0000 O   0  0  0  0  0  0  0  0  0  0  0  0
    3.5722    0.0000    0.0000 C   0  0  0  0  0  0  0  0  0  0  0  0
    3.5722    0.0000    0.0000 O   0  0  0  0  0  0  0  0  0  0  0  0
    2.8578    0.0000    0.0000 C   0  0  0  0  0  0  0  0  0  0  0  0
    2.1433    0.0000    0.0000 O   0  0  0  0  0  0  0  0  0  0  0  0
    1.4289    0.0000    0.0000 C   0  0  0  0  0  0  0  0  0  0  0  0
    0.7144    0.0000    0.0000 C   0  0  0  0  0  0  0  0  0  0  0  0
    0.7144    0.0000    0.0000 O   0  0  0  0  0  0  0  0  0  0  0  0
  1  2  1  0      
  2  3  1  0      
  3  4  2  0      
  4  5  1  0      
  5  6  2  0      
  6  7  1  0      
  7  8  2  0      
  3  8  1  0      
  6  9  1  0      
  9 10  2  0      
 10 11  1  0      
 11 12  1  0      
 12 13  1  0      
 13 14  1  0      
 14 15  1  0      
 14 16  1  0      
 16 17  1  0      
 16 18  1  0      
 18 19  1  0      
 18 20  1  0      
 12 20  1  0      
 20 21  1  0      
 10 22  1  0      
 22 23  2  0      
 22 24  1  0      
 24 25  2  0      
 25 26  1  0      
  9 26  1  0      
 25 27  1  0      
 27 28  1  0      
 28 29  1  0      
 29 30  2  0      
 30 31  1  0      
 30 32  1  0      
 27 33  2  0      
 33 34  1  0      
 34 35  1  0      
 35 36  1  0      
 36 37  1  0      
 37 38  1  0      
 38 39  1  0      
 37 40  1  0      
 40 41  1  0      
 40 42  1  0      
 42 43  1  0      
 42 44  1  0      
 35 44  1  0      
 44 45  1  0      
 33 46  1  0      
 46 47  2  0      
 24 47  1  0      
 47 48  1  0      
M  END
>  <Bioactivity>
Icariin(Ieariline) is a major constituent of flavonoids from the Chinese medicinal herb Epimedium brevicornum; exhibits multiple biological properties, including anti-inflammatory, neuroregulatory and
 neuroprotective activities.

>  <CAS>
489-32-7

>  <Col>
8

>  <Formula>
C33H40O15

>  <ID>
T2855

>  <Index>
507

>  <MOLENAME>
Icariin

>  <MolWt>
676.68

>  <Pathways>
Metabolism

>  <Plate>
PLATE 007

>  <QR code>
1151479523

>  <Receptor>
PDE5A1; PDE5A2; PDE5A3

>  <Reference>
1. Song YX, et al. Chin J Integr Med. 2015 Nov 20. 

>  <Row>
C

>  <SMILES>
COC1=CC=C(C=C1)C1=C(OC2OC(C)C(O)C(O)C2O)C(=O)C2=C(O1)C(CC=C(C)C)=C(OC1OC(CO)C(O)C(O)C1O)C=C2O

>  <Target>
PDE inhibitor

>  <Weight>
10.4mg

$$$$
Lab-1.sdf
  ChemDraw05232018482D

 26 27  0  0  0  0  0  0  0  0999 V2000
   -0.3572    0.0000    0.0000 O   0  0  0  0  0  0  0  0  0  0  0  0
   -1.0717    0.0000    0.0000 C   0  0  0  0  0  0  0  0  0  0  0  0
   -1.7862    0.0000    0.0000 O   0  0  0  0  0  0  0  0  0  0  0  0
   -1.0717    0.0000    0.0000 C   0  0  0  0  0  0  0  0  0  0  0  0
   -1.7862    0.0000    0.0000 C   0  0  0  0  0  0  0  0  0  0  0  0
   -2.5006    0.0000    0.0000 C   0  0  0  0  0  0  0  0  0  0  0  0
   -3.2151    0.0000    0.0000 C   0  0  0  0  0  0  0  0  0  0  0  0
   -3.9295    0.0000    0.0000 C   0  0  0  0  0  0  0  0  0  0  0  0
   -4.6439    0.0000    0.0000 O   0  0  0  0  0  0  0  0  0  0  0  0
   -3.9295    0.0000    0.0000 C   0  0  0  0  0  0  0  0  0  0  0  0
   -4.6439    0.0000    0.0000 O   0  0  0  0  0  0  0  0  0  0  0  0
   -3.2151    0.0000    0.0000 C   0  0  0  0  0  0  0  0  0  0  0  0
   -2.5006    0.0000    0.0000 C   0  0  0  0  0  0  0  0  0  0  0  0
   -0.3572    0.0000    0.0000 O   0  0  0  0  0  0  0  0  0  0  0  0
    0.3572    0.0000    0.0000 C   0  0  0  0  0  0  0  0  0  0  0  0
    0.3572    0.0000    0.0000 O   0  0  0  0  0  0  0  0  0  0  0  0
    1.0716    0.0000    0.0000 C   0  0  0  0  0  0  0  0  0  0  0  0
    1.7861    0.0000    0.0000 C   0  0  0  0  0  0  0  0  0  0  0  0
    2.5006    0.0000    0.0000 C   0  0  0  0  0  0  0  0  0  0  0  0
    3.2150    0.0000    0.0000 C   0  0  0  0  0  0  0  0  0  0  0  0
    3.9294    0.0000    0.0000 C   0  0  0  0  0  0  0  0  0  0  0  0
    4.6439    0.0000    0.0000 O   0  0  0  0  0  0  0  0  0  0  0  0
    3.9294    0.0000    0.0000 C   0  0  0  0  0  0  0  0  0  0  0  0
    4.6439    0.0000    0.0000 O   0  0  0  0  0  0  0  0  0  0  0  0
    3.2150    0.0000    0.0000 C   0  0  0  0  0  0  0  0  0  0  0  0
    2.5006    0.0000    0.0000 C   0  0  0  0  0  0  0  0  0  0  0  0
  1  2  1  0      
  2  3  2  0      
  2  4  1  0      
  4  5  1  0      
  5  6  1  0      
  6  7  2  0      
  7  8  1  0      
  8  9  1  0      
  8 10  2  0      
 10 11  1  0      
 10 12  1  0      
 12 13  2  0      
  6 13  1  0      
  4 14  1  0      
 14 15  1  0      
 15 16  2  0      
 17 15  1  4      
 17 18  2  0      
 18 19  1  0      
 19 20  2  0      
 20 21  1  0      
 21 22  1  0      
 21 23  2  0      
 23 24  1  0      
 23 25  1  0      
 25 26  2  0      
 19 26  1  0      
M  END
>  <Bioactivity>
Rosmarinic acid has shown to contain antioxidant,anti-inflammatory and antimicrobial activities. Possesses promising physiological actions related to cognitive performance,Alzheimer¡äs disease prevent
ion,kideney disease treatment,cardioprotection and c

>  <CAS>
20283-92-5

>  <Col>
9

>  <Formula>
C18H16O8

>  <ID>
T2765

>  <Index>
508

>  <MOLENAME>
Rosmarinic acid

>  <MolWt>
360.33

>  <Pathways>
Others

>  <Plate>
PLATE 007

>  <QR code>
1151479522

>  <Receptor>
Others

>  <Reference>
1. Lee JW, et al. Mol Nutr Food Res. 2015 Mar;59(3):386-400. 

>  <Row>
C

>  <SMILES>
OC(=O)C(CC1=CC(O)=C(O)C=C1)OC(=O)C=CC1=CC(O)=C(O)C=C1

>  <Target>
Others

>  <Weight>
10.3mg

$$$$
Lab-1.sdf
  ChemDraw05232018482D

 24 26  0  0  0  0  0  0  0  0999 V2000
   -1.2448    0.0000    0.0000 C   0  0  0  0  0  0  0  0  0  0  0  0
   -0.7145    0.0000    0.0000 C   0  0  0  0  0  0  0  0  0  0  0  0
   -0.1842    0.0000    0.0000 C   0  0  0  0  0  0  0  0  0  0  0  0
   -0.4663    0.0000    0.0000 O   0  0  0  0  0  0  0  0  0  0  0  0
   -1.4289    0.0000    0.0000 C   0  0  0  0  0  0  0  0  0  0  0  0
   -2.1434    0.0000    0.0000 O   0  0  0  0  0  0  0  0  0  0  0  0
   -1.4289    0.0000    0.0000 C   0  0  0  0  0  0  0  0  0  0  0  0
   -0.7145    0.0000    0.0000 C   0  0  0  0  0  0  0  0  0  0  0  0
    0.0000    0.0000    0.0000 C   0  0  0  0  0  0  0  0  0  0  0  0
    0.0000    0.0000    0.0000 C   0  0  0  0  0  0  0  0  0  0  0  0
    0.7145    0.0000    0.0000 C   0  0  0  0  0  0  0  0  0  0  0  0
    0.7145    0.0000    0.0000 C   0  0  0  0  0  0  0  0  0  0  0  0
    0.0000    0.0000    0.0000 C   0  0  0  0  0  0  0  0  0  0  0  0
    0.0000    0.0000    0.0000 C   0  0  0  0  0  0  0  0  0  0  0  0
   -0.6674    0.0000    0.0000 C   0  0  0  0  0  0  0  0  0  0  0  0
   -0.4125    0.0000    0.0000 C   0  0  0  0  0  0  0  0  0  0  0  0
    0.4125    0.0000    0.0000 O   0  0  0  0  0  0  0  0  0  0  0  0
    0.6675    0.0000    0.0000 C   0  0  0  0  0  0  0  0  0  0  0  0
    1.4521    0.0000    0.0000 O   0  0  0  0  0  0  0  0  0  0  0  0
    1.4290    0.0000    0.0000 C   0  0  0  0  0  0  0  0  0  0  0  0
    2.1434    0.0000    0.0000 C   0  0  0  0  0  0  0  0  0  0  0  0
    1.4290    0.0000    0.0000 C   0  0  0  0  0  0  0  0  0  0  0  0
    0.7145    0.0000    0.0000 C   0  0  0  0  0  0  0  0  0  0  0  0
    0.0000    0.0000    0.0000 C   0  0  0  0  0  0  0  0  0  0  0  0
  1  2  1  0      
  2  3  1  0      
  3  4  1  0      
  2  5  1  0      
  5  6  1  0      
  5  7  1  0      
  7  8  1  0      
  8  9  1  0      
  9 10  1  0      
  9 11  1  0      
 11 12  1  0      
 13 12  1  4      
 13 14  2  0      
 14 15  1  0      
 15 16  2  0      
 16 17  1  0      
 17 18  1  0      
 14 18  1  0      
 18 19  2  0      
 11 20  1  0      
 20 21  2  0      
 20 22  1  0      
 22 23  1  0      
 23 24  1  0      
  2 24  1  0      
  9 24  1  0      
M  END
>  <Bioactivity>
Dehydroandrographolide is extracted from herbal medicine Andrographis paniculata (Burm f) Nees; alleviate oxidative stress in LPS-induced acute lung injury possibly by inactivating iNOS.

>  <CAS>
134418-28-3

>  <Col>
10

>  <Formula>
C20H28O5

>  <ID>
T2738

>  <Index>
509

>  <MOLENAME>
Dehydroandrographolide

>  <MolWt>
348.43

>  <Pathways>
Immunology/Inflammation

>  <Plate>
PLATE 007

>  <QR code>
1151479521

>  <Receptor>
iNOS

>  <Reference>
1. Hsieh MJ, et al. Oncotarget. 2015 Oct 13;6(31):30831-49. 

>  <Row>
C

>  <SMILES>
CC1(CO)C(O)CCC2(C)C(CC=C3C=COC3=O)C(=C)CCC12

>  <Target>
Others

>  <Weight>
10.3mg

$$$$
Lab-1.sdf
  ChemDraw05232018482D

 16 18  0  0  0  0  0  0  0  0999 V2000
   -1.5415    0.0000    0.0000 C   0  0  0  0  0  0  0  0  0  0  0  0
   -0.9086    0.0000    0.0000 C   0  0  0  0  0  0  0  0  0  0  0  0
   -1.0230    0.0000    0.0000 C   0  0  0  0  0  0  0  0  0  0  0  0
   -0.3332    0.0000    0.0000 C   0  0  0  0  0  0  0  0  0  0  0  0
    0.3875    0.0000    0.0000 C   0  0  0  0  0  0  0  0  0  0  0  0
    0.9534    0.0000    0.0000 O   0  0  0  0  0  0  0  0  0  0  0  0
    0.9321    0.0000    0.0000 C   0  0  0  0  0  0  0  0  0  0  0  0
    1.0443    0.0000    0.0000 C   0  0  0  0  0  0  0  0  0  0  0  0
    1.5022    0.0000    0.0000 C   0  0  0  0  0  0  0  0  0  0  0  0
    1.4784    0.0000    0.0000 C   0  0  0  0  0  0  0  0  0  0  0  0
    1.5415    0.0000    0.0000 C   0  0  0  0  0  0  0  0  0  0  0  0
    0.7785    0.0000    0.0000 C   0  0  0  0  0  0  0  0  0  0  0  0
    0.1870    0.0000    0.0000 C   0  0  0  0  0  0  0  0  0  0  0  0
   -0.5353    0.0000    0.0000 C   0  0  0  0  0  0  0  0  0  0  0  0
   -0.1277    0.0000    0.0000 C   0  0  0  0  0  0  0  0  0  0  0  0
    0.7227    0.0000    0.0000 C   0  0  0  0  0  0  0  0  0  0  0  0
  1  2  1  0      
  2  3  1  0      
  3  4  1  0      
  4  5  1  0      
  5  6  1  0      
  5  7  1  0      
  7  8  1  0      
  7  9  1  0      
  7 10  1  0      
 10 11  1  0      
 11 12  1  0      
 12 13  1  0      
  5 13  1  0      
 13 14  1  0      
 13 15  1  0      
  2 15  1  0      
 15 16  1  0      
 10 16  1  0      
M  END
>  <Bioactivity>
Extracted from Patchouli plants;Suitability:Ethanol and ethyl ether;Store the product in sealed,cool and dry condition

>  <CAS>
5986-55-0

>  <Col>
11

>  <Formula>
C15H26O

>  <ID>
T2916

>  <Index>
510

>  <MOLENAME>
Patchouli alcohol

>  <MolWt>
222.2

>  <Pathways>
Others

>  <Plate>
PLATE 007

>  <QR code>
1151479520

>  <Receptor>
Others

>  <Reference>
1. Yu JL, et al. J Surg Res. 2015 Apr;194(2):537-43. 

>  <Row>
C

>  <SMILES>
CC1CCC2(O)C(C)(C)C3CCC2(C)C1C3

>  <Target>
Others

>  <Weight>
10.4mg

$$$$
Lab-1.sdf
  ChemDraw05232018482D

 27 29  0  0  0  0  0  0  0  0999 V2000
    3.4176    0.0000    0.0000 C   0  0  0  0  0  0  0  0  0  0  0  0
    3.4176    0.0000    0.0000 O   0  0  0  0  0  0  0  0  0  0  0  0
    2.7031    0.0000    0.0000 C   0  0  0  0  0  0  0  0  0  0  0  0
    2.7031    0.0000    0.0000 C   0  0  0  0  0  0  0  0  0  0  0  0
    3.4176    0.0000    0.0000 O   0  0  0  0  0  0  0  0  0  0  0  0
    3.4176    0.0000    0.0000 C   0  0  0  0  0  0  0  0  0  0  0  0
    1.9886    0.0000    0.0000 C   0  0  0  0  0  0  0  0  0  0  0  0
    1.2742    0.0000    0.0000 C   0  0  0  0  0  0  0  0  0  0  0  0
    0.5597    0.0000    0.0000 C   0  0  0  0  0  0  0  0  0  0  0  0
    0.5597    0.0000    0.0000 C   0  0  0  0  0  0  0  0  0  0  0  0
    1.2271    0.0000    0.0000 C   0  0  0  0  0  0  0  0  0  0  0  0
    0.9722    0.0000    0.0000 O   0  0  0  0  0  0  0  0  0  0  0  0
    0.1472    0.0000    0.0000 C   0  0  0  0  0  0  0  0  0  0  0  0
   -0.3377    0.0000    0.0000 O   0  0  0  0  0  0  0  0  0  0  0  0
   -0.1077    0.0000    0.0000 C   0  0  0  0  0  0  0  0  0  0  0  0
   -0.8924    0.0000    0.0000 C   0  0  0  0  0  0  0  0  0  0  0  0
   -1.0638    0.0000    0.0000 C   0  0  0  0  0  0  0  0  0  0  0  0
   -1.8485    0.0000    0.0000 C   0  0  0  0  0  0  0  0  0  0  0  0
   -2.0200    0.0000    0.0000 C   0  0  0  0  0  0  0  0  0  0  0  0
   -2.8046    0.0000    0.0000 O   0  0  0  0  0  0  0  0  0  0  0  0
   -3.4176    0.0000    0.0000 C   0  0  0  0  0  0  0  0  0  0  0  0
   -1.4069    0.0000    0.0000 C   0  0  0  0  0  0  0  0  0  0  0  0
   -1.5785    0.0000    0.0000 O   0  0  0  0  0  0  0  0  0  0  0  0
   -0.6223    0.0000    0.0000 C   0  0  0  0  0  0  0  0  0  0  0  0
   -0.4508    0.0000    0.0000 C   0  0  0  0  0  0  0  0  0  0  0  0
    1.2742    0.0000    0.0000 C   0  0  0  0  0  0  0  0  0  0  0  0
    1.9886    0.0000    0.0000 C   0  0  0  0  0  0  0  0  0  0  0  0
  1  2  1  0      
  2  3  1  0      
  3  4  2  0      
  4  5  1  0      
  5  6  1  0      
  4  7  1  0      
  7  8  2  0      
  8  9  1  0      
  9 10  1  0      
 10 11  1  0      
 11 12  1  0      
 12 13  1  0      
 13 14  2  0      
 13 15  1  0      
 10 15  1  0      
 15 16  1  0      
 16 17  1  0      
 17 18  2  0      
 18 19  1  0      
 19 20  1  0      
 20 21  1  0      
 19 22  2  0      
 22 23  1  0      
 22 24  1  0      
 24 25  2  0      
 17 25  1  0      
  8 26  1  0      
 26 27  2  0      
  3 27  1  0      
M  END
>  <Bioactivity>
Arctigenin is a lignan found in certain plants of the Asteraceae;&nbsp; it has shown antiviral and antiY effects in glass; it is the aglycone of arctiin.

>  <CAS>
7770-78-7

>  <Col>
2

>  <Formula>
C21H24O6

>  <ID>
T2957

>  <Index>
511

>  <MOLENAME>
Arctigenin

>  <MolWt>
372.41

>  <Pathways>
Others

>  <Plate>
PLATE 007

>  <QR code>
1151479508

>  <Receptor>
Others

>  <Reference>
1. Wu X, et al. Biochem Pharmacol. 2015 Aug 15;96(4):323-36. 

>  <Row>
D

>  <SMILES>
COC1=C(OC)C=C(CC2COC(=O)C2CC2=CC(OC)=C(O)C=C2)C=C1

>  <Target>
Others

>  <Weight>
10.3mg

$$$$
Lab-1.sdf
  ChemDraw05232018482D

 25 26  0  0  0  0  0  0  0  0999 V2000
   -3.5723    0.0000    0.0000 O   0  0  0  0  0  0  0  0  0  0  0  0
   -2.8578    0.0000    0.0000 C   0  0  0  0  0  0  0  0  0  0  0  0
   -2.8578    0.0000    0.0000 C   0  0  0  0  0  0  0  0  0  0  0  0
   -2.1433    0.0000    0.0000 C   0  0  0  0  0  0  0  0  0  0  0  0
   -2.6736    0.0000    0.0000 O   0  0  0  0  0  0  0  0  0  0  0  0
   -1.4289    0.0000    0.0000 C   0  0  0  0  0  0  0  0  0  0  0  0
   -1.4289    0.0000    0.0000 C   0  0  0  0  0  0  0  0  0  0  0  0
   -0.7144    0.0000    0.0000 O   0  0  0  0  0  0  0  0  0  0  0  0
   -0.7144    0.0000    0.0000 C   0  0  0  0  0  0  0  0  0  0  0  0
   -1.4289    0.0000    0.0000 O   0  0  0  0  0  0  0  0  0  0  0  0
    0.0001    0.0000    0.0000 C   0  0  0  0  0  0  0  0  0  0  0  0
    0.7145    0.0000    0.0000 C   0  0  0  0  0  0  0  0  0  0  0  0
    1.4289    0.0000    0.0000 C   0  0  0  0  0  0  0  0  0  0  0  0
    2.1434    0.0000    0.0000 C   0  0  0  0  0  0  0  0  0  0  0  0
    2.8579    0.0000    0.0000 C   0  0  0  0  0  0  0  0  0  0  0  0
    3.5723    0.0000    0.0000 O   0  0  0  0  0  0  0  0  0  0  0  0
    2.8579    0.0000    0.0000 C   0  0  0  0  0  0  0  0  0  0  0  0
    3.5723    0.0000    0.0000 O   0  0  0  0  0  0  0  0  0  0  0  0
    2.1434    0.0000    0.0000 C   0  0  0  0  0  0  0  0  0  0  0  0
    1.4289    0.0000    0.0000 C   0  0  0  0  0  0  0  0  0  0  0  0
   -2.1433    0.0000    0.0000 C   0  0  0  0  0  0  0  0  0  0  0  0
   -2.1433    0.0000    0.0000 O   0  0  0  0  0  0  0  0  0  0  0  0
   -1.6130    0.0000    0.0000 C   0  0  0  0  0  0  0  0  0  0  0  0
   -1.8952    0.0000    0.0000 O   0  0  0  0  0  0  0  0  0  0  0  0
   -0.8006    0.0000    0.0000 O   0  0  0  0  0  0  0  0  0  0  0  0
  1  2  1  0      
  2  3  1  0      
  3  4  1  0      
  4  5  1  0      
  4  6  1  0      
  6  7  1  0      
  7  8  1  0      
  8  9  1  0      
  9 10  2  0      
 11  9  1  4      
 11 12  2  0      
 12 13  1  0      
 13 14  2  0      
 14 15  1  0      
 15 16  1  0      
 15 17  2  0      
 17 18  1  0      
 17 19  1  0      
 19 20  2  0      
 13 20  1  0      
  7 21  1  0      
  2 21  1  0      
 21 22  1  0      
  4 23  1  0      
 23 24  1  0      
 23 25  2  0      
M  END
>  <Bioactivity>
Chlorogenic acid(NSC-407296; 3-O-Caffeoylquinic acid) is one of the most abundant polyphenols in the human diet, has been reported to inhibit Y cell growth and a major anti-inflammatory constituent of
 lonicerae flos extract.

>  <CAS>
327-97-9

>  <Col>
3

>  <Formula>
C16H18O9

>  <ID>
T2805

>  <Index>
512

>  <MOLENAME>
Chlorogenic Acid

>  <MolWt>
354.32

>  <Pathways>
Others

>  <Plate>
PLATE 007

>  <QR code>
1151479509

>  <Receptor>
Others

>  <Reference>
1. Illing EA, et al. Otolaryngol Head Neck Surg. 2015 Aug;153(2):291-7.

>  <Row>
D

>  <SMILES>
OC1CC(O)(CC(OC(=O)C=CC2=CC(O)=C(O)C=C2)C1O)C(O)=O

>  <Target>
Others

>  <Weight>
10.4mg

$$$$
Lab-1.sdf
  ChemDraw05232018482D

 21 23  0  0  0  0  0  0  0  0999 V2000
    0.3572    0.0000    0.0000 C   0  0  0  0  0  0  0  0  0  0  0  0
   -0.3572    0.0000    0.0000 C   0  0  0  0  0  0  0  0  0  0  0  0
   -0.3572    0.0000    0.0000 C   0  0  0  0  0  0  0  0  0  0  0  0
    0.3572    0.0000    0.0000 O   0  0  0  0  0  0  0  0  0  0  0  0
    1.0717    0.0000    0.0000 C   0  0  0  0  0  0  0  0  0  0  0  0
    1.7861    0.0000    0.0000 C   0  0  0  0  0  0  0  0  0  0  0  0
    2.5006    0.0000    0.0000 C   0  0  0  0  0  0  0  0  0  0  0  0
    2.5006    0.0000    0.0000 C   0  0  0  0  0  0  0  0  0  0  0  0
    1.7861    0.0000    0.0000 C   0  0  0  0  0  0  0  0  0  0  0  0
    1.0717    0.0000    0.0000 C   0  0  0  0  0  0  0  0  0  0  0  0
    1.7861    0.0000    0.0000 O   0  0  0  0  0  0  0  0  0  0  0  0
    3.2150    0.0000    0.0000 O   0  0  0  0  0  0  0  0  0  0  0  0
   -1.0717    0.0000    0.0000 C   0  0  0  0  0  0  0  0  0  0  0  0
   -1.7861    0.0000    0.0000 C   0  0  0  0  0  0  0  0  0  0  0  0
   -2.5005    0.0000    0.0000 C   0  0  0  0  0  0  0  0  0  0  0  0
   -2.5005    0.0000    0.0000 C   0  0  0  0  0  0  0  0  0  0  0  0
   -1.7861    0.0000    0.0000 C   0  0  0  0  0  0  0  0  0  0  0  0
   -1.0717    0.0000    0.0000 C   0  0  0  0  0  0  0  0  0  0  0  0
   -3.2150    0.0000    0.0000 O   0  0  0  0  0  0  0  0  0  0  0  0
   -3.2150    0.0000    0.0000 O   0  0  0  0  0  0  0  0  0  0  0  0
   -1.0717    0.0000    0.0000 O   0  0  0  0  0  0  0  0  0  0  0  0
  1  2  1  0      
  2  3  1  0      
  3  4  1  0      
  4  5  1  0      
  5  6  2  0      
  6  7  1  0      
  7  8  2  0      
  8  9  1  0      
  9 10  2  0      
  5 10  1  0      
  1 10  1  0      
  9 11  1  0      
  7 12  1  0      
  3 13  1  0      
 13 14  2  0      
 14 15  1  0      
 15 16  2  0      
 16 17  1  0      
 17 18  2  0      
 13 18  1  0      
 16 19  1  0      
 15 20  1  0      
  2 21  1  0      
M  END
>  <Bioactivity>
(-)-Epicatechin is a naturally occurring flavanol; a likely candidate for cocoa-based product reported reductions in cardiometabolic risk.

>  <CAS>
490-46-0

>  <Col>
4

>  <Formula>
C15H14O6

>  <ID>
T2856

>  <Index>
513

>  <MOLENAME>
Epicatechin

>  <MolWt>
290.28

>  <Pathways>
Others

>  <Plate>
PLATE 007

>  <QR code>
1151479510

>  <Receptor>
Others

>  <Reference>
1. Kiewning D, et al. Food Chem. 2013 Sep 1;140(1-2):99-104.

>  <Row>
D

>  <SMILES>
C1C(C(OC2=CC(=CC(=C21)O)O)C3=CC(=C(C=C3)O)O)O

>  <Target>
Others

>  <Weight>
10.3mg

$$$$
Lab-1.sdf
  ChemDraw05232018482D

 31 34  0  0  0  0  0  0  0  0999 V2000
   -3.9295    0.0000    0.0000 O   0  0  0  0  0  0  0  0  0  0  0  0
   -3.9295    0.0000    0.0000 C   0  0  0  0  0  0  0  0  0  0  0  0
   -3.2151    0.0000    0.0000 C   0  0  0  0  0  0  0  0  0  0  0  0
   -3.2151    0.0000    0.0000 O   0  0  0  0  0  0  0  0  0  0  0  0
   -2.5006    0.0000    0.0000 C   0  0  0  0  0  0  0  0  0  0  0  0
   -2.5006    0.0000    0.0000 O   0  0  0  0  0  0  0  0  0  0  0  0
   -1.7861    0.0000    0.0000 C   0  0  0  0  0  0  0  0  0  0  0  0
   -1.7861    0.0000    0.0000 C   0  0  0  0  0  0  0  0  0  0  0  0
   -1.0717    0.0000    0.0000 C   0  0  0  0  0  0  0  0  0  0  0  0
   -1.0717    0.0000    0.0000 O   0  0  0  0  0  0  0  0  0  0  0  0
   -0.3572    0.0000    0.0000 C   0  0  0  0  0  0  0  0  0  0  0  0
    0.3572    0.0000    0.0000 C   0  0  0  0  0  0  0  0  0  0  0  0
    0.3572    0.0000    0.0000 O   0  0  0  0  0  0  0  0  0  0  0  0
    1.0717    0.0000    0.0000 C   0  0  0  0  0  0  0  0  0  0  0  0
    1.0717    0.0000    0.0000 C   0  0  0  0  0  0  0  0  0  0  0  0
    0.3572    0.0000    0.0000 O   0  0  0  0  0  0  0  0  0  0  0  0
   -0.3572    0.0000    0.0000 C   0  0  0  0  0  0  0  0  0  0  0  0
   -1.0717    0.0000    0.0000 C   0  0  0  0  0  0  0  0  0  0  0  0
    1.7861    0.0000    0.0000 C   0  0  0  0  0  0  0  0  0  0  0  0
    1.7861    0.0000    0.0000 C   0  0  0  0  0  0  0  0  0  0  0  0
    2.5006    0.0000    0.0000 C   0  0  0  0  0  0  0  0  0  0  0  0
    3.2151    0.0000    0.0000 C   0  0  0  0  0  0  0  0  0  0  0  0
    3.9295    0.0000    0.0000 O   0  0  0  0  0  0  0  0  0  0  0  0
    3.2151    0.0000    0.0000 C   0  0  0  0  0  0  0  0  0  0  0  0
    2.5006    0.0000    0.0000 C   0  0  0  0  0  0  0  0  0  0  0  0
   -1.7861    0.0000    0.0000 C   0  0  0  0  0  0  0  0  0  0  0  0
   -1.0717    0.0000    0.0000 O   0  0  0  0  0  0  0  0  0  0  0  0
   -1.7861    0.0000    0.0000 C   0  0  0  0  0  0  0  0  0  0  0  0
   -1.0717    0.0000    0.0000 O   0  0  0  0  0  0  0  0  0  0  0  0
   -2.5006    0.0000    0.0000 C   0  0  0  0  0  0  0  0  0  0  0  0
   -2.5006    0.0000    0.0000 O   0  0  0  0  0  0  0  0  0  0  0  0
  1  2  1  0      
  2  3  1  0      
  3  4  1  0      
  4  5  1  0      
  5  6  1  0      
  6  7  1  0      
  7  8  2  0      
  8  9  1  0      
  9 10  1  0      
  9 11  2  0      
 11 12  1  0      
 12 13  2  0      
 12 14  1  0      
 14 15  2  0      
 15 16  1  0      
 16 17  1  0      
 11 17  1  0      
 17 18  2  0      
  7 18  1  0      
 14 19  1  0      
 19 20  2  0      
 20 21  1  0      
 21 22  2  0      
 22 23  1  0      
 22 24  1  0      
 24 25  2  0      
 19 25  1  0      
  5 26  1  0      
 26 27  1  0      
 26 28  1  0      
 28 29  1  0      
 28 30  1  0      
  3 30  1  0      
 30 31  1  0      
M  END
>  <Bioactivity>
Genistin   Genistin, a natural product, is commonly found in soy and soy products.

>  <CAS>
529-59-9

>  <Col>
5

>  <Formula>
C21H20O10

>  <ID>
T2882

>  <Index>
514

>  <MOLENAME>
Genistin

>  <MolWt>
432.37

>  <Pathways>
Others

>  <Plate>
PLATE 007

>  <QR code>
1151479511

>  <Receptor>
Others

>  <Reference>
1. Xiong YJ, et al. Arch Pharm Res. 2013 Mar;36(3):345-52

>  <Row>
D

>  <SMILES>
OCC1OC(OC2=CC(O)=C3C(=O)C(=COC3=C2)C2=CC=C(O)C=C2)C(O)C(O)C1O

>  <Target>
Others

>  <Weight>
10.2mg

$$$$
Lab-1.sdf
  ChemDraw05232018482D

 25 28  0  0  0  0  0  0  0  0999 V2000
   -2.7057    0.0000    0.0000 O   0  0  0  0  0  0  0  0  0  0  0  0
   -2.1099    0.0000    0.0000 C   0  0  0  0  0  0  0  0  0  0  0  0
   -1.3178    0.0000    0.0000 C   0  0  0  0  0  0  0  0  0  0  0  0
   -0.7220    0.0000    0.0000 O   0  0  0  0  0  0  0  0  0  0  0  0
    0.0701    0.0000    0.0000 C   0  0  0  0  0  0  0  0  0  0  0  0
    0.6660    0.0000    0.0000 O   0  0  0  0  0  0  0  0  0  0  0  0
    0.4697    0.0000    0.0000 C   0  0  0  0  0  0  0  0  0  0  0  0
   -0.3224    0.0000    0.0000 O   0  0  0  0  0  0  0  0  0  0  0  0
   -0.5186    0.0000    0.0000 C   0  0  0  0  0  0  0  0  0  0  0  0
    0.0772    0.0000    0.0000 C   0  0  0  0  0  0  0  0  0  0  0  0
    0.8693    0.0000    0.0000 C   0  0  0  0  0  0  0  0  0  0  0  0
    1.5708    0.0000    0.0000 C   0  0  0  0  0  0  0  0  0  0  0  0
    1.6317    0.0000    0.0000 O   0  0  0  0  0  0  0  0  0  0  0  0
    2.2005    0.0000    0.0000 C   0  0  0  0  0  0  0  0  0  0  0  0
    2.7057    0.0000    0.0000 O   0  0  0  0  0  0  0  0  0  0  0  0
    1.8883    0.0000    0.0000 C   0  0  0  0  0  0  0  0  0  0  0  0
    1.9137    0.0000    0.0000 C   0  0  0  0  0  0  0  0  0  0  0  0
    1.2122    0.0000    0.0000 O   0  0  0  0  0  0  0  0  0  0  0  0
    1.0656    0.0000    0.0000 C   0  0  0  0  0  0  0  0  0  0  0  0
    0.2664    0.0000    0.0000 C   0  0  0  0  0  0  0  0  0  0  0  0
    1.0585    0.0000    0.0000 O   0  0  0  0  0  0  0  0  0  0  0  0
   -0.3295    0.0000    0.0000 C   0  0  0  0  0  0  0  0  0  0  0  0
   -0.1332    0.0000    0.0000 O   0  0  0  0  0  0  0  0  0  0  0  0
   -1.1215    0.0000    0.0000 C   0  0  0  0  0  0  0  0  0  0  0  0
   -1.7174    0.0000    0.0000 O   0  0  0  0  0  0  0  0  0  0  0  0
  1  2  1  0      
  2  3  1  0      
  3  4  1  0      
  4  5  1  0      
  5  6  1  0      
  6  7  1  0      
  7  8  1  0      
  8  9  1  0      
  9 10  2  0      
 10 11  1  0      
 11 12  1  0      
 12 13  1  0      
 12 14  1  0      
 14 15  1  0      
 15 16  1  0      
 14 16  1  0      
 16 17  1  0      
 17 18  1  0      
 16 19  1  0      
  7 19  1  0      
 11 19  1  0      
  5 20  1  0      
 20 21  1  0      
 20 22  1  0      
 22 23  1  0      
 22 24  1  0      
  3 24  1  0      
 24 25  1  0      
M  END
>  <Bioactivity>
 Catalpol, an iridoid glycoside, has neuroprotective, anti-inflammatory, and anti-hepatitis virus effects. 

>  <CAS>
2415-24-9

>  <Col>
6

>  <Formula>
C15H22O10

>  <ID>
T2780

>  <Index>
515

>  <MOLENAME>
Catalpol

>  <MolWt>
362.33

>  <Pathways>
Others

>  <Plate>
PLATE 007

>  <QR code>
1151479512

>  <Receptor>
Others

>  <Reference>
1. Wang JH, et al. Biomed PharmacOthers. 2015 Feb;69:291-6.

>  <Row>
D

>  <SMILES>
OCC1OC(OC2OC=CC3C(O)C4OC4(CO)C23)C(O)C(O)C1O

>  <Target>
Others

>  <Weight>
10.3mg

$$$$
Lab-1.sdf
  ChemDraw05232018482D

 30 33  0  0  0  0  0  0  0  0999 V2000
   -4.5409    0.0000    0.0000 C   0  0  0  0  0  0  0  0  0  0  0  0
   -3.7237    0.0000    0.0000 C   0  0  0  0  0  0  0  0  0  0  0  0
   -3.4128    0.0000    0.0000 C   0  0  0  0  0  0  0  0  0  0  0  0
   -2.5955    0.0000    0.0000 C   0  0  0  0  0  0  0  0  0  0  0  0
   -2.2846    0.0000    0.0000 C   0  0  0  0  0  0  0  0  0  0  0  0
   -1.4673    0.0000    0.0000 C   0  0  0  0  0  0  0  0  0  0  0  0
   -1.1564    0.0000    0.0000 C   0  0  0  0  0  0  0  0  0  0  0  0
   -0.9609    0.0000    0.0000 C   0  0  0  0  0  0  0  0  0  0  0  0
   -1.1902    0.0000    0.0000 C   0  0  0  0  0  0  0  0  0  0  0  0
   -0.5074    0.0000    0.0000 C   0  0  0  0  0  0  0  0  0  0  0  0
    0.1439    0.0000    0.0000 C   0  0  0  0  0  0  0  0  0  0  0  0
    0.9561    0.0000    0.0000 C   0  0  0  0  0  0  0  0  0  0  0  0
    1.2363    0.0000    0.0000 C   0  0  0  0  0  0  0  0  0  0  0  0
    2.0485    0.0000    0.0000 C   0  0  0  0  0  0  0  0  0  0  0  0
    2.5804    0.0000    0.0000 C   0  0  0  0  0  0  0  0  0  0  0  0
    3.3925    0.0000    0.0000 C   0  0  0  0  0  0  0  0  0  0  0  0
    3.9243    0.0000    0.0000 C   0  0  0  0  0  0  0  0  0  0  0  0
    4.7364    0.0000    0.0000 O   0  0  0  0  0  0  0  0  0  0  0  0
    3.6440    0.0000    0.0000 C   0  0  0  0  0  0  0  0  0  0  0  0
    2.8319    0.0000    0.0000 C   0  0  0  0  0  0  0  0  0  0  0  0
    2.3001    0.0000    0.0000 C   0  0  0  0  0  0  0  0  0  0  0  0
    2.0197    0.0000    0.0000 C   0  0  0  0  0  0  0  0  0  0  0  0
    1.4879    0.0000    0.0000 C   0  0  0  0  0  0  0  0  0  0  0  0
    1.2076    0.0000    0.0000 C   0  0  0  0  0  0  0  0  0  0  0  0
    0.3955    0.0000    0.0000 C   0  0  0  0  0  0  0  0  0  0  0  0
   -0.1364    0.0000    0.0000 C   0  0  0  0  0  0  0  0  0  0  0  0
   -0.4962    0.0000    0.0000 C   0  0  0  0  0  0  0  0  0  0  0  0
   -3.9191    0.0000    0.0000 C   0  0  0  0  0  0  0  0  0  0  0  0
   -3.6082    0.0000    0.0000 C   0  0  0  0  0  0  0  0  0  0  0  0
   -4.7364    0.0000    0.0000 C   0  0  0  0  0  0  0  0  0  0  0  0
  1  2  1  0      
  2  3  1  0      
  4  3  1  4      
  4  5  2  0      
  5  6  1  0      
  6  7  1  0      
  6  8  1  0      
  8  9  1  0      
  9 10  1  0      
 10 11  1  0      
 11 12  1  0      
 12 13  1  0      
 13 14  1  0      
 14 15  2  0      
 15 16  1  0      
 16 17  1  0      
 17 18  1  0      
 17 19  1  0      
 19 20  1  0      
 20 21  1  0      
 15 21  1  0      
 21 22  1  0      
 21 23  1  0      
 12 23  1  0      
 23 24  1  0      
 24 25  1  0      
 25 26  1  0      
  8 26  1  0      
 11 26  1  0      
 26 27  1  0      
  3 28  1  0      
 28 29  1  0      
 28 30  1  0      
M  END
>  <Bioactivity>
Extracted from Glycine max(L.)Merr.;Suitability:Chloroform,benzene,ethyl acetate,pyridine,ethanol,acetone;Store the product in sealed,cool and dry condition

>  <CAS>
83-48-7

>  <Col>
7

>  <Formula>
C29H48O

>  <ID>
T2967

>  <Index>
516

>  <MOLENAME>
Stigmasterol

>  <MolWt>
412.69

>  <Pathways>
Others

>  <Plate>
PLATE 007

>  <QR code>
1151479513

>  <Receptor>
Others

>  <Reference>
1. Kim YS, et al. BMB Rep. 2014 Aug;47(8):433-8.

>  <Row>
D

>  <SMILES>
CCC(C=CC(C)C1CCC2C3CC=C4CC(O)CCC4(C)C3CCC12C)C(C)C

>  <Target>
Others

>  <Weight>
10.3mg

$$$$
Lab-1.sdf
  ChemDraw05232018482D

 31 33  0  0  0  0  0  0  0  0999 V2000
    3.6371    0.0000    0.0000 C   0  0  0  0  0  0  0  0  0  0  0  0
    2.9056    0.0000    0.0000 O   0  0  0  0  0  0  0  0  0  0  0  0
    2.0067    0.0000    0.0000 C   0  0  0  0  0  0  0  0  0  0  0  0
    1.4234    0.0000    0.0000 C   0  0  0  0  0  0  0  0  0  0  0  0
    2.0370    0.0000    0.0000 O   0  0  0  0  0  0  0  0  0  0  0  0
    2.8203    0.0000    0.0000 C   0  0  0  0  0  0  0  0  0  0  0  0
    0.6266    0.0000    0.0000 C   0  0  0  0  0  0  0  0  0  0  0  0
    0.3158    0.0000    0.0000 O   0  0  0  0  0  0  0  0  0  0  0  0
    0.7522    0.0000    0.0000 C   0  0  0  0  0  0  0  0  0  0  0  0
    0.4130    0.0000    0.0000 C   0  0  0  0  0  0  0  0  0  0  0  0
    0.9964    0.0000    0.0000 C   0  0  0  0  0  0  0  0  0  0  0  0
    0.9964    0.0000    0.0000 C   0  0  0  0  0  0  0  0  0  0  0  0
    0.4130    0.0000    0.0000 C   0  0  0  0  0  0  0  0  0  0  0  0
    0.9173    0.0000    0.0000 C   0  0  0  0  0  0  0  0  0  0  0  0
   -0.4120    0.0000    0.0000 C   0  0  0  0  0  0  0  0  0  0  0  0
   -0.2790    0.0000    0.0000 C   0  0  0  0  0  0  0  0  0  0  0  0
   -1.1226    0.0000    0.0000 O   0  0  0  0  0  0  0  0  0  0  0  0
   -0.9953    0.0000    0.0000 C   0  0  0  0  0  0  0  0  0  0  0  0
   -0.9953    0.0000    0.0000 C   0  0  0  0  0  0  0  0  0  0  0  0
   -1.7921    0.0000    0.0000 C   0  0  0  0  0  0  0  0  0  0  0  0
   -2.0056    0.0000    0.0000 C   0  0  0  0  0  0  0  0  0  0  0  0
   -2.9044    0.0000    0.0000 O   0  0  0  0  0  0  0  0  0  0  0  0
   -3.6371    0.0000    0.0000 C   0  0  0  0  0  0  0  0  0  0  0  0
   -1.4223    0.0000    0.0000 C   0  0  0  0  0  0  0  0  0  0  0  0
   -1.9729    0.0000    0.0000 O   0  0  0  0  0  0  0  0  0  0  0  0
   -2.7570    0.0000    0.0000 C   0  0  0  0  0  0  0  0  0  0  0  0
   -0.6255    0.0000    0.0000 C   0  0  0  0  0  0  0  0  0  0  0  0
   -0.1580    0.0000    0.0000 O   0  0  0  0  0  0  0  0  0  0  0  0
   -0.2792    0.0000    0.0000 C   0  0  0  0  0  0  0  0  0  0  0  0
   -0.4120    0.0000    0.0000 C   0  0  0  0  0  0  0  0  0  0  0  0
    1.7932    0.0000    0.0000 C   0  0  0  0  0  0  0  0  0  0  0  0
  1  2  1  0      
  2  3  1  0      
  3  4  2  0      
  4  5  1  0      
  5  6  1  0      
  4  7  1  0      
  7  8  1  0      
  8  9  1  0      
  7 10  2  0      
 10 11  1  0      
 11 12  1  0      
 12 13  1  0      
 13 14  1  0      
 13 15  1  0      
 15 16  1  0      
 15 17  1  0      
 15 18  1  0      
 18 19  1  0      
 19 20  2  0      
 20 21  1  0      
 21 22  1  0      
 22 23  1  0      
 21 24  2  0      
 24 25  1  0      
 25 26  1  0      
 24 27  1  0      
 27 28  1  0      
 28 29  1  0      
 27 30  2  0      
 10 30  1  0      
 19 30  1  0      
 11 31  2  0      
  3 31  1  0      
M  END
>  <Bioactivity>
Schisandrin has various therapeutic effects on a range of medical conditions such as anti-asthmatic, anti-Y, and anti-inflammatory effects.

>  <CAS>
7432-28-2

>  <Col>
8

>  <Formula>
C24H32O7

>  <ID>
T2950

>  <Index>
517

>  <MOLENAME>
Schisandrin

>  <MolWt>
432.51

>  <Pathways>
Others

>  <Plate>
PLATE 007

>  <QR code>
1151479514

>  <Receptor>
Others

>  <Reference>
1. Guo CX, et al. Pharmazie. 2015 Jan;70(1):29-32.

>  <Row>
D

>  <SMILES>
COC1=C(OC)C(OC)=C2C(CC(C)C(C)(O)CC3=CC(OC)=C(OC)C(OC)=C23)=C1

>  <Target>
Others

>  <Weight>
10.1mg

$$$$
Lab-1.sdf
  ChemDraw05232018482D

 17 19  0  0  0  0  0  0  0  0999 V2000
   -1.5411    0.0000    0.0000 C   0  0  0  0  0  0  0  0  0  0  0  0
   -1.4473    0.0000    0.0000 C   0  0  0  0  0  0  0  0  0  0  0  0
   -2.1050    0.0000    0.0000 C   0  0  0  0  0  0  0  0  0  0  0  0
   -0.6958    0.0000    0.0000 C   0  0  0  0  0  0  0  0  0  0  0  0
    0.0512    0.0000    0.0000 C   0  0  0  0  0  0  0  0  0  0  0  0
    0.7417    0.0000    0.0000 C   0  0  0  0  0  0  0  0  0  0  0  0
    0.1323    0.0000    0.0000 O   0  0  0  0  0  0  0  0  0  0  0  0
   -0.5078    0.0000    0.0000 C   0  0  0  0  0  0  0  0  0  0  0  0
   -1.2708    0.0000    0.0000 O   0  0  0  0  0  0  0  0  0  0  0  0
   -0.0751    0.0000    0.0000 C   0  0  0  0  0  0  0  0  0  0  0  0
    0.7803    0.0000    0.0000 C   0  0  0  0  0  0  0  0  0  0  0  0
    1.1886    0.0000    0.0000 C   0  0  0  0  0  0  0  0  0  0  0  0
    1.1921    0.0000    0.0000 C   0  0  0  0  0  0  0  0  0  0  0  0
    2.0101    0.0000    0.0000 C   0  0  0  0  0  0  0  0  0  0  0  0
    2.1050    0.0000    0.0000 C   0  0  0  0  0  0  0  0  0  0  0  0
    1.3498    0.0000    0.0000 C   0  0  0  0  0  0  0  0  0  0  0  0
    1.2066    0.0000    0.0000 C   0  0  0  0  0  0  0  0  0  0  0  0
  1  2  1  0      
  2  3  1  0      
  2  4  1  0      
  4  5  1  0      
  5  6  1  0      
  6  7  1  0      
  7  8  1  0      
  4  8  1  0      
  8  9  1  0      
  8 10  1  0      
 10 11  1  0      
 11 12  2  0      
 11 13  1  0      
  6 13  1  0      
 13 14  1  0      
 14 15  1  0      
 15 16  1  0      
  6 16  1  0      
 16 17  1  0      
M  END
>  <Bioactivity>
Curcumol is a pure monomer isolated from Rhizoma Curcumaeis with antitumor activities. Extracted from Curcuma zedoaria(Berg.)Rose;Store the product in sealed,cool and dry condition

>  <CAS>
4871-97-0

>  <Col>
9

>  <Formula>
C15H24O2

>  <ID>
T2853

>  <Index>
518

>  <MOLENAME>
Curcumol

>  <MolWt>
236.35

>  <Pathways>
JAK/STAT Signaling

>  <Plate>
PLATE 007

>  <QR code>
1151479515

>  <Receptor>
JAK

>  <Reference>
1. Zhang W, et al. Med Oncol, 2011, 28(1), 307-314.

>  <Row>
D

>  <SMILES>
CC(C)C1CC23OC1(O)CC(=C)C2CCC3C

>  <Target>
JAK inhibitor

>  <Weight>
10.4mg

$$$$
Lab-1.sdf
  ChemDraw05232018482D

 62 69  0  0  0  0  0  0  0  0999 V2000
   -4.6440    0.0000    0.0000 O   0  0  0  0  0  0  0  0  0  0  0  0
   -3.9295    0.0000    0.0000 C   0  0  0  0  0  0  0  0  0  0  0  0
   -3.2150    0.0000    0.0000 C   0  0  0  0  0  0  0  0  0  0  0  0
   -2.5006    0.0000    0.0000 O   0  0  0  0  0  0  0  0  0  0  0  0
   -1.7861    0.0000    0.0000 C   0  0  0  0  0  0  0  0  0  0  0  0
   -1.0716    0.0000    0.0000 O   0  0  0  0  0  0  0  0  0  0  0  0
   -1.0716    0.0000    0.0000 C   0  0  0  0  0  0  0  0  0  0  0  0
   -1.7861    0.0000    0.0000 C   0  0  0  0  0  0  0  0  0  0  0  0
   -1.7861    0.0000    0.0000 C   0  0  0  0  0  0  0  0  0  0  0  0
   -1.0716    0.0000    0.0000 C   0  0  0  0  0  0  0  0  0  0  0  0
   -0.3573    0.0000    0.0000 C   0  0  0  0  0  0  0  0  0  0  0  0
   -0.3573    0.0000    0.0000 C   0  0  0  0  0  0  0  0  0  0  0  0
    0.3573    0.0000    0.0000 C   0  0  0  0  0  0  0  0  0  0  0  0
    0.3573    0.0000    0.0000 O   0  0  0  0  0  0  0  0  0  0  0  0
    1.0717    0.0000    0.0000 C   0  0  0  0  0  0  0  0  0  0  0  0
    1.0717    0.0000    0.0000 C   0  0  0  0  0  0  0  0  0  0  0  0
    1.7862    0.0000    0.0000 C   0  0  0  0  0  0  0  0  0  0  0  0
    2.5006    0.0000    0.0000 C   0  0  0  0  0  0  0  0  0  0  0  0
    2.5006    0.0000    0.0000 C   0  0  0  0  0  0  0  0  0  0  0  0
    1.7862    0.0000    0.0000 C   0  0  0  0  0  0  0  0  0  0  0  0
    1.7862    0.0000    0.0000 O   0  0  0  0  0  0  0  0  0  0  0  0
    3.2151    0.0000    0.0000 C   0  0  0  0  0  0  0  0  0  0  0  0
    3.9296    0.0000    0.0000 O   0  0  0  0  0  0  0  0  0  0  0  0
    3.2151    0.0000    0.0000 O   0  0  0  0  0  0  0  0  0  0  0  0
    0.3573    0.0000    0.0000 C   0  0  0  0  0  0  0  0  0  0  0  0
    0.3573    0.0000    0.0000 C   0  0  0  0  0  0  0  0  0  0  0  0
    1.0717    0.0000    0.0000 C   0  0  0  0  0  0  0  0  0  0  0  0
    1.0717    0.0000    0.0000 C   0  0  0  0  0  0  0  0  0  0  0  0
    1.7862    0.0000    0.0000 C   0  0  0  0  0  0  0  0  0  0  0  0
    1.7862    0.0000    0.0000 O   0  0  0  0  0  0  0  0  0  0  0  0
    2.5006    0.0000    0.0000 C   0  0  0  0  0  0  0  0  0  0  0  0
    2.5006    0.0000    0.0000 O   0  0  0  0  0  0  0  0  0  0  0  0
    3.2151    0.0000    0.0000 C   0  0  0  0  0  0  0  0  0  0  0  0
    3.2151    0.0000    0.0000 C   0  0  0  0  0  0  0  0  0  0  0  0
    2.5006    0.0000    0.0000 O   0  0  0  0  0  0  0  0  0  0  0  0
    3.9296    0.0000    0.0000 C   0  0  0  0  0  0  0  0  0  0  0  0
    4.6440    0.0000    0.0000 O   0  0  0  0  0  0  0  0  0  0  0  0
    3.9296    0.0000    0.0000 C   0  0  0  0  0  0  0  0  0  0  0  0
    4.6440    0.0000    0.0000 O   0  0  0  0  0  0  0  0  0  0  0  0
    3.2151    0.0000    0.0000 C   0  0  0  0  0  0  0  0  0  0  0  0
    3.2151    0.0000    0.0000 O   0  0  0  0  0  0  0  0  0  0  0  0
    2.5006    0.0000    0.0000 C   0  0  0  0  0  0  0  0  0  0  0  0
    2.5006    0.0000    0.0000 C   0  0  0  0  0  0  0  0  0  0  0  0
    1.7862    0.0000    0.0000 C   0  0  0  0  0  0  0  0  0  0  0  0
    0.3573    0.0000    0.0000 C   0  0  0  0  0  0  0  0  0  0  0  0
    0.3573    0.0000    0.0000 O   0  0  0  0  0  0  0  0  0  0  0  0
   -0.3573    0.0000    0.0000 C   0  0  0  0  0  0  0  0  0  0  0  0
   -0.3573    0.0000    0.0000 C   0  0  0  0  0  0  0  0  0  0  0  0
   -1.0716    0.0000    0.0000 C   0  0  0  0  0  0  0  0  0  0  0  0
   -1.7861    0.0000    0.0000 C   0  0  0  0  0  0  0  0  0  0  0  0
   -1.7861    0.0000    0.0000 C   0  0  0  0  0  0  0  0  0  0  0  0
   -1.0716    0.0000    0.0000 C   0  0  0  0  0  0  0  0  0  0  0  0
   -1.0716    0.0000    0.0000 O   0  0  0  0  0  0  0  0  0  0  0  0
   -2.5006    0.0000    0.0000 C   0  0  0  0  0  0  0  0  0  0  0  0
   -3.2150    0.0000    0.0000 O   0  0  0  0  0  0  0  0  0  0  0  0
   -2.5006    0.0000    0.0000 O   0  0  0  0  0  0  0  0  0  0  0  0
   -1.7861    0.0000    0.0000 C   0  0  0  0  0  0  0  0  0  0  0  0
   -1.0716    0.0000    0.0000 O   0  0  0  0  0  0  0  0  0  0  0  0
   -2.5006    0.0000    0.0000 C   0  0  0  0  0  0  0  0  0  0  0  0
   -2.5006    0.0000    0.0000 O   0  0  0  0  0  0  0  0  0  0  0  0
   -3.2150    0.0000    0.0000 C   0  0  0  0  0  0  0  0  0  0  0  0
   -3.9295    0.0000    0.0000 O   0  0  0  0  0  0  0  0  0  0  0  0
  1  2  1  0      
  2  3  1  0      
  3  4  1  0      
  4  5  1  0      
  5  6  1  0      
  6  7  1  0      
  7  8  2  0      
  8  9  1  0      
  9 10  2  0      
 10 11  1  0      
 11 12  2  0      
  7 12  1  0      
 12 13  1  0      
 13 14  2  0      
 13 15  1  0      
 15 16  2  0      
 16 17  1  0      
 17 18  2  0      
 18 19  1  0      
 19 20  2  0      
 15 20  1  0      
 20 21  1  0      
 18 22  1  0      
 22 23  1  0      
 22 24  2  0      
 16 25  1  0      
 11 25  1  0      
 25 26  1  0      
 26 27  1  0      
 27 28  2  0      
 28 29  1  0      
 29 30  1  0      
 30 31  1  0      
 31 32  1  0      
 32 33  1  0      
 33 34  1  0      
 34 35  1  0      
 33 36  1  0      
 36 37  1  0      
 36 38  1  0      
 38 39  1  0      
 38 40  1  0      
 31 40  1  0      
 40 41  1  0      
 29 42  2  0      
 42 43  1  0      
 43 44  2  0      
 27 44  1  0      
 28 45  1  0      
 45 46  2  0      
 45 47  1  0      
 47 48  2  0      
 26 48  1  0      
 48 49  1  0      
 49 50  2  0      
 50 51  1  0      
 51 52  2  0      
 47 52  1  0      
 52 53  1  0      
 50 54  1  0      
 54 55  1  0      
 54 56  2  0      
  5 57  1  0      
 57 58  1  0      
 57 59  1  0      
 59 60  1  0      
 59 61  1  0      
  3 61  1  0      
 61 62  1  0      
M  END
>  <Bioactivity>
Extracted from Puffer fish,salamanders,frogs foot spot; Suitability:Acidic aqueous solution;Store the product in sealed,cool and dry condition

>  <CAS>
128-57-4

>  <Col>
10

>  <Formula>
C42H38O20

>  <ID>
T2734

>  <Index>
519

>  <MOLENAME>
Sennoside B

>  <MolWt>
862.74

>  <Pathways>
Tyrosine Kinase/Adaptors

>  <Plate>
PLATE 007

>  <QR code>
1151479516

>  <Receptor>
PDGFR

>  <Reference>
1. Chen YC, et al. Life Sci. 2009 Jun 19;84(25-26):915-22. 

>  <Row>
D

>  <SMILES>
OCC1OC(OC2=CC=CC3=C2C(=O)C2=C(C=C(C=C2O)C(O)=O)C3C2C3=C(C(OC4OC(CO)C(O)C(O)C4O)=CC=C3)C(=O)C3=C2C=C(C=C3O)C(O)=O)C(O)C(O)C1O

>  <Target>
PDGFR inhibitor

>  <Weight>
10.3mg

$$$$
Lab-1.sdf
  ChemDraw05232018482D

 22 24  0  0  0  0  0  0  0  0999 V2000
   -1.0717    0.0000    0.0000 O   0  0  0  0  0  0  0  0  0  0  0  0
   -0.3572    0.0000    0.0000 C   0  0  0  0  0  0  0  0  0  0  0  0
    0.3572    0.0000    0.0000 C   0  0  0  0  0  0  0  0  0  0  0  0
    1.0717    0.0000    0.0000 C   0  0  0  0  0  0  0  0  0  0  0  0
    1.7861    0.0000    0.0000 C   0  0  0  0  0  0  0  0  0  0  0  0
    1.7861    0.0000    0.0000 O   0  0  0  0  0  0  0  0  0  0  0  0
    2.5006    0.0000    0.0000 C   0  0  0  0  0  0  0  0  0  0  0  0
    2.5006    0.0000    0.0000 C   0  0  0  0  0  0  0  0  0  0  0  0
    3.2150    0.0000    0.0000 O   0  0  0  0  0  0  0  0  0  0  0  0
    1.7861    0.0000    0.0000 C   0  0  0  0  0  0  0  0  0  0  0  0
    1.0717    0.0000    0.0000 C   0  0  0  0  0  0  0  0  0  0  0  0
    0.3572    0.0000    0.0000 O   0  0  0  0  0  0  0  0  0  0  0  0
   -0.3572    0.0000    0.0000 C   0  0  0  0  0  0  0  0  0  0  0  0
   -1.0717    0.0000    0.0000 C   0  0  0  0  0  0  0  0  0  0  0  0
   -1.0717    0.0000    0.0000 C   0  0  0  0  0  0  0  0  0  0  0  0
   -1.7861    0.0000    0.0000 C   0  0  0  0  0  0  0  0  0  0  0  0
   -1.7861    0.0000    0.0000 O   0  0  0  0  0  0  0  0  0  0  0  0
   -2.5005    0.0000    0.0000 C   0  0  0  0  0  0  0  0  0  0  0  0
   -3.2150    0.0000    0.0000 O   0  0  0  0  0  0  0  0  0  0  0  0
   -2.5005    0.0000    0.0000 C   0  0  0  0  0  0  0  0  0  0  0  0
   -3.2150    0.0000    0.0000 O   0  0  0  0  0  0  0  0  0  0  0  0
   -1.7861    0.0000    0.0000 C   0  0  0  0  0  0  0  0  0  0  0  0
  1  2  1  0      
  2  3  1  0      
  3  4  1  0      
  4  5  2  0      
  5  6  1  0      
  5  7  1  0      
  7  8  2  0      
  8  9  1  0      
  8 10  1  0      
 10 11  2  0      
  4 11  1  0      
 11 12  1  0      
 12 13  1  0      
  2 13  1  0      
 13 14  1  0      
 14 15  2  0      
 15 16  1  0      
 16 17  1  0      
 16 18  2  0      
 18 19  1  0      
 18 20  1  0      
 20 21  1  0      
 20 22  2  0      
 14 22  1  0      
M  END
>  <Bioactivity>
(-)-Epigallocatechin is the most abundant flavonoid in green tea, can bind to unfolded native polypeptides and prevent conversion to amyloid fibrils.

>  <CAS>
970-74-1

>  <Col>
11

>  <Formula>
C15H14O7

>  <ID>
T2987

>  <Index>
520

>  <MOLENAME>
Epigallocatechin

>  <MolWt>
306.27

>  <Pathways>
Others

>  <Plate>
PLATE 007

>  <QR code>
1151479517

>  <Receptor>
Others

>  <Reference>
1. Wang N, et al. J Agric Food Chem. 2015 Jan 26

>  <Row>
D

>  <SMILES>
OC1CC2=C(O)C=C(O)C=C2OC1C1=CC(O)=C(O)C(O)=C1

>  <Target>
Others

>  <Weight>
10.1mg

$$$$
Lab-1.sdf
  ChemDraw05232018482D

 23 25  0  0  0  0  0  0  0  0999 V2000
   -4.1443    0.0000    0.0000 Br  0  0  0  0  0  0  0  0  0  0  0  0
   -1.7872    0.0000    0.0000 C   0  0  0  0  0  0  0  0  0  0  0  0
   -0.9622    0.0000    0.0000 N   0  0  0  0  0  0  0  0  0  0  0  0
   -0.7304    0.0000    0.0000 C   0  0  0  0  0  0  0  0  0  0  0  0
    0.0739    0.0000    0.0000 C   0  0  0  0  0  0  0  0  0  0  0  0
    0.4318    0.0000    0.0000 C   0  0  0  0  0  0  0  0  0  0  0  0
    0.0739    0.0000    0.0000 C   0  0  0  0  0  0  0  0  0  0  0  0
   -0.7304    0.0000    0.0000 C   0  0  0  0  0  0  0  0  0  0  0  0
   -1.3754    0.0000    0.0000 C   0  0  0  0  0  0  0  0  0  0  0  0
   -2.0899    0.0000    0.0000 O   0  0  0  0  0  0  0  0  0  0  0  0
   -1.3754    0.0000    0.0000 C   0  0  0  0  0  0  0  0  0  0  0  0
    1.2568    0.0000    0.0000 O   0  0  0  0  0  0  0  0  0  0  0  0
    1.6693    0.0000    0.0000 C   0  0  0  0  0  0  0  0  0  0  0  0
    1.2568    0.0000    0.0000 O   0  0  0  0  0  0  0  0  0  0  0  0
    2.4943    0.0000    0.0000 C   0  0  0  0  0  0  0  0  0  0  0  0
    2.9068    0.0000    0.0000 C   0  0  0  0  0  0  0  0  0  0  0  0
    3.7318    0.0000    0.0000 O   0  0  0  0  0  0  0  0  0  0  0  0
    2.9068    0.0000    0.0000 C   0  0  0  0  0  0  0  0  0  0  0  0
    3.7318    0.0000    0.0000 C   0  0  0  0  0  0  0  0  0  0  0  0
    4.1443    0.0000    0.0000 C   0  0  0  0  0  0  0  0  0  0  0  0
    3.7318    0.0000    0.0000 C   0  0  0  0  0  0  0  0  0  0  0  0
    2.9068    0.0000    0.0000 C   0  0  0  0  0  0  0  0  0  0  0  0
    2.4943    0.0000    0.0000 C   0  0  0  0  0  0  0  0  0  0  0  0
  2  3  1  0      
  3  4  1  0      
  4  5  1  0      
  5  6  1  0      
  6  7  1  0      
  7  8  1  0      
  3  8  1  0      
  8  9  1  0      
  9 10  1  0      
 10 11  1  0      
  4 11  1  0      
  9 11  1  0      
  6 12  1  0      
 12 13  1  0      
 13 14  2  0      
 13 15  1  0      
 15 16  1  0      
 16 17  1  0      
 15 18  1  0      
 18 19  2  0      
 19 20  1  0      
 20 21  2  0      
 21 22  1  0      
 22 23  2  0      
 18 23  1  0      
M  END
>  <Bioactivity>
Scopolamine hydrobromide is a competitive muscarinic acetylcholine receptor (mAChR) with an IC50 of 55.3 ¡À 4.3 nM.

>  <CAS>
114-49-8

>  <Col>
2

>  <Formula>
C17H22BrNO4

>  <ID>
T2725

>  <Index>
521

>  <MOLENAME>
Scopolamine HBr

>  <MolWt>
384.26

>  <Pathways>
Neuroscience

>  <Plate>
PLATE 007

>  <QR code>
1151479505

>  <Receptor>
Muscarinic AChR

>  <Reference>
1. Murasaki O, et al. J Pharmacol Exp Ther. 2003 Dec;307(3):995-1000. 

>  <Row>
E

>  <SMILES>
Br.CN1C2CC(CC1C1OC21)OC(=O)C(CO)C1=CC=CC=C1

>  <Target>
AChR antagonist

>  <Weight>
10.2mg

$$$$
Lab-1.sdf
  ChemDraw05232018482D

 29 31  0  0  0  0  0  0  0  0999 V2000
   -3.9295    0.0000    0.0000 C   0  0  0  0  0  0  0  0  0  0  0  0
   -3.2151    0.0000    0.0000 O   0  0  0  0  0  0  0  0  0  0  0  0
   -2.5006    0.0000    0.0000 C   0  0  0  0  0  0  0  0  0  0  0  0
   -1.7861    0.0000    0.0000 C   0  0  0  0  0  0  0  0  0  0  0  0
   -1.7861    0.0000    0.0000 O   0  0  0  0  0  0  0  0  0  0  0  0
   -1.0717    0.0000    0.0000 C   0  0  0  0  0  0  0  0  0  0  0  0
   -1.0717    0.0000    0.0000 C   0  0  0  0  0  0  0  0  0  0  0  0
   -1.0717    0.0000    0.0000 C   0  0  0  0  0  0  0  0  0  0  0  0
   -1.7861    0.0000    0.0000 C   0  0  0  0  0  0  0  0  0  0  0  0
   -2.5006    0.0000    0.0000 C   0  0  0  0  0  0  0  0  0  0  0  0
   -0.3573    0.0000    0.0000 C   0  0  0  0  0  0  0  0  0  0  0  0
   -0.3573    0.0000    0.0000 C   0  0  0  0  0  0  0  0  0  0  0  0
    0.3572    0.0000    0.0000 C   0  0  0  0  0  0  0  0  0  0  0  0
    0.3572    0.0000    0.0000 O   0  0  0  0  0  0  0  0  0  0  0  0
    1.0717    0.0000    0.0000 C   0  0  0  0  0  0  0  0  0  0  0  0
    1.0717    0.0000    0.0000 C   0  0  0  0  0  0  0  0  0  0  0  0
    0.3572    0.0000    0.0000 O   0  0  0  0  0  0  0  0  0  0  0  0
    1.7860    0.0000    0.0000 C   0  0  0  0  0  0  0  0  0  0  0  0
    1.7860    0.0000    0.0000 O   0  0  0  0  0  0  0  0  0  0  0  0
    2.5005    0.0000    0.0000 C   0  0  0  0  0  0  0  0  0  0  0  0
    2.5005    0.0000    0.0000 C   0  0  0  0  0  0  0  0  0  0  0  0
    3.2150    0.0000    0.0000 O   0  0  0  0  0  0  0  0  0  0  0  0
    3.9295    0.0000    0.0000 C   0  0  0  0  0  0  0  0  0  0  0  0
    2.5005    0.0000    0.0000 C   0  0  0  0  0  0  0  0  0  0  0  0
    3.2150    0.0000    0.0000 O   0  0  0  0  0  0  0  0  0  0  0  0
    3.9295    0.0000    0.0000 C   0  0  0  0  0  0  0  0  0  0  0  0
    1.7860    0.0000    0.0000 C   0  0  0  0  0  0  0  0  0  0  0  0
    1.7860    0.0000    0.0000 O   0  0  0  0  0  0  0  0  0  0  0  0
    1.0717    0.0000    0.0000 C   0  0  0  0  0  0  0  0  0  0  0  0
  1  2  1  0      
  2  3  1  0      
  3  4  2  0      
  4  5  1  0      
  5  6  1  0      
  4  7  1  0      
  7  8  2  0      
  8  9  1  0      
  9 10  2  0      
  3 10  1  0      
  8 11  1  0      
 11 12  2  0      
 12 13  1  0      
 13 14  2  0      
 13 15  1  0      
 15 16  2  0      
 16 17  1  0      
 11 17  1  0      
 16 18  1  0      
 18 19  1  0      
 19 20  1  0      
 18 21  2  0      
 21 22  1  0      
 22 23  1  0      
 21 24  1  0      
 24 25  1  0      
 25 26  1  0      
 24 27  2  0      
 15 27  1  0      
 27 28  1  0      
 28 29  1  0      
M  END
>  <Bioactivity>
Nobiletin is an inhibitor of ERK with in a concentration-dependent manner .

>  <CAS>
478-01-3

>  <Col>
3

>  <Formula>
C21H22O8

>  <ID>
T2834

>  <Index>
522

>  <MOLENAME>
Nobiletin

>  <MolWt>
402.4

>  <Pathways>
Proteases/Proteasome

>  <Plate>
PLATE 007

>  <QR code>
1151479504

>  <Receptor>
MMP

>  <Reference>
1. Murakami A, et al. Y Res, 2000, 60(18), 5059-5066.

>  <Row>
E

>  <SMILES>
COC1=C(OC)C=C(C=C1)C1=CC(=O)C2=C(O1)C(OC)=C(OC)C(OC)=C2OC

>  <Target>
MMP inhibitor

>  <Weight>
10.4mg

$$$$
Lab-1.sdf
  ChemDraw05232018482D

 33 36  0  0  0  0  0  0  0  0999 V2000
   -4.1145    0.0000    0.0000 C   0  0  0  0  0  0  0  0  0  0  0  0
   -3.6082    0.0000    0.0000 C   0  0  0  0  0  0  0  0  0  0  0  0
   -2.7909    0.0000    0.0000 C   0  0  0  0  0  0  0  0  0  0  0  0
   -3.9191    0.0000    0.0000 C   0  0  0  0  0  0  0  0  0  0  0  0
   -3.4127    0.0000    0.0000 C   0  0  0  0  0  0  0  0  0  0  0  0
   -2.5955    0.0000    0.0000 C   0  0  0  0  0  0  0  0  0  0  0  0
   -2.0891    0.0000    0.0000 C   0  0  0  0  0  0  0  0  0  0  0  0
   -2.7404    0.0000    0.0000 C   0  0  0  0  0  0  0  0  0  0  0  0
   -1.4378    0.0000    0.0000 O   0  0  0  0  0  0  0  0  0  0  0  0
   -1.5827    0.0000    0.0000 C   0  0  0  0  0  0  0  0  0  0  0  0
   -1.8121    0.0000    0.0000 C   0  0  0  0  0  0  0  0  0  0  0  0
   -1.1292    0.0000    0.0000 C   0  0  0  0  0  0  0  0  0  0  0  0
   -0.4779    0.0000    0.0000 C   0  0  0  0  0  0  0  0  0  0  0  0
   -0.2802    0.0000    0.0000 C   0  0  0  0  0  0  0  0  0  0  0  0
   -0.7582    0.0000    0.0000 C   0  0  0  0  0  0  0  0  0  0  0  0
   -0.2264    0.0000    0.0000 C   0  0  0  0  0  0  0  0  0  0  0  0
   -0.5067    0.0000    0.0000 O   0  0  0  0  0  0  0  0  0  0  0  0
    0.5858    0.0000    0.0000 C   0  0  0  0  0  0  0  0  0  0  0  0
    0.8661    0.0000    0.0000 C   0  0  0  0  0  0  0  0  0  0  0  0
    1.6782    0.0000    0.0000 C   0  0  0  0  0  0  0  0  0  0  0  0
    1.3979    0.0000    0.0000 C   0  0  0  0  0  0  0  0  0  0  0  0
    2.2100    0.0000    0.0000 C   0  0  0  0  0  0  0  0  0  0  0  0
    3.0221    0.0000    0.0000 C   0  0  0  0  0  0  0  0  0  0  0  0
    3.3024    0.0000    0.0000 C   0  0  0  0  0  0  0  0  0  0  0  0
    4.1145    0.0000    0.0000 O   0  0  0  0  0  0  0  0  0  0  0  0
    2.7706    0.0000    0.0000 C   0  0  0  0  0  0  0  0  0  0  0  0
    3.4841    0.0000    0.0000 C   0  0  0  0  0  0  0  0  0  0  0  0
    2.4866    0.0000    0.0000 C   0  0  0  0  0  0  0  0  0  0  0  0
    1.9585    0.0000    0.0000 C   0  0  0  0  0  0  0  0  0  0  0  0
    1.4267    0.0000    0.0000 C   0  0  0  0  0  0  0  0  0  0  0  0
    0.6145    0.0000    0.0000 C   0  0  0  0  0  0  0  0  0  0  0  0
    0.3342    0.0000    0.0000 C   0  0  0  0  0  0  0  0  0  0  0  0
    0.0233    0.0000    0.0000 C   0  0  0  0  0  0  0  0  0  0  0  0
  1  2  1  0      
  2  3  1  0      
  2  4  2  0      
  4  5  1  0      
  5  6  1  0      
  6  7  1  0      
  7  8  1  0      
  7  9  1  0      
  7 10  1  0      
 10 11  1  0      
 11 12  1  0      
 12 13  1  0      
 13 14  1  0      
 13 15  1  0      
 10 15  1  0      
 15 16  1  0      
 16 17  1  0      
 16 18  1  0      
 18 19  1  0      
 19 20  1  0      
 20 21  1  0      
 20 22  1  0      
 22 23  1  0      
 23 24  1  0      
 24 25  1  0      
 24 26  1  0      
 26 27  1  0      
 26 28  1  0      
 26 29  1  0      
 20 29  1  0      
 29 30  1  0      
 30 31  1  0      
 31 32  1  0      
 13 32  1  0      
 19 32  1  0      
 32 33  1  0      
M  END
>  <Bioactivity>
(20S)-Protopanaxadiol (20-Epiprotopanaxadiol) is an aglycon metabolic derivative of the protopanaxadiol-type ginseng saponin; apoptosis inducer.

>  <CAS>
30636-90-9

>  <Col>
4

>  <Formula>
C30H52O3

>  <ID>
T2799

>  <Index>
523

>  <MOLENAME>
(20S)-Protopanaxadiol

>  <MolWt>
460.39

>  <Pathways>
Apoptosis

>  <Plate>
PLATE 007

>  <QR code>
1151475861

>  <Receptor>
Apoptosis inducer

>  <Reference>
1. Liu R, et al. Fitoterapia. 2010 Dec;81(8):1079-87.

>  <Row>
E

>  <SMILES>
CC(C)=CCCC(C)(O)C1CCC2(C)C1C(O)CC1C3(C)CCC(O)C(C)(C)C3CCC21C

>  <Target>
Apoptosis inducer

>  <Weight>
10.3mg

$$$$
Lab-1.sdf
  ChemDraw05232018482D

 29 31  0  0  0  0  0  0  0  0999 V2000
    0.9348    0.0000    0.0000 C   0  0  0  0  0  0  0  0  0  0  0  0
    0.1098    0.0000    0.0000 C   0  0  0  0  0  0  0  0  0  0  0  0
   -0.3027    0.0000    0.0000 O   0  0  0  0  0  0  0  0  0  0  0  0
   -0.3027    0.0000    0.0000 O   0  0  0  0  0  0  0  0  0  0  0  0
    0.1098    0.0000    0.0000 C   0  0  0  0  0  0  0  0  0  0  0  0
    0.9348    0.0000    0.0000 C   0  0  0  0  0  0  0  0  0  0  0  0
    1.3473    0.0000    0.0000 O   0  0  0  0  0  0  0  0  0  0  0  0
    1.3473    0.0000    0.0000 C   0  0  0  0  0  0  0  0  0  0  0  0
    2.1723    0.0000    0.0000 C   0  0  0  0  0  0  0  0  0  0  0  0
    2.0290    0.0000    0.0000 C   0  0  0  0  0  0  0  0  0  0  0  0
    2.9475    0.0000    0.0000 C   0  0  0  0  0  0  0  0  0  0  0  0
    2.5848    0.0000    0.0000 C   0  0  0  0  0  0  0  0  0  0  0  0
    2.1723    0.0000    0.0000 C   0  0  0  0  0  0  0  0  0  0  0  0
    1.3473    0.0000    0.0000 C   0  0  0  0  0  0  0  0  0  0  0  0
    0.9348    0.0000    0.0000 O   0  0  0  0  0  0  0  0  0  0  0  0
    0.9348    0.0000    0.0000 C   0  0  0  0  0  0  0  0  0  0  0  0
    0.5223    0.0000    0.0000 C   0  0  0  0  0  0  0  0  0  0  0  0
    0.1098    0.0000    0.0000 C   0  0  0  0  0  0  0  0  0  0  0  0
    0.0235    0.0000    0.0000 O   0  0  0  0  0  0  0  0  0  0  0  0
   -0.3027    0.0000    0.0000 C   0  0  0  0  0  0  0  0  0  0  0  0
    0.1098    0.0000    0.0000 O   0  0  0  0  0  0  0  0  0  0  0  0
   -1.1277    0.0000    0.0000 C   0  0  0  0  0  0  0  0  0  0  0  0
   -1.5402    0.0000    0.0000 C   0  0  0  0  0  0  0  0  0  0  0  0
   -2.1722    0.0000    0.0000 C   0  0  0  0  0  0  0  0  0  0  0  0
   -1.1277    0.0000    0.0000 O   0  0  0  0  0  0  0  0  0  0  0  0
   -0.3027    0.0000    0.0000 C   0  0  0  0  0  0  0  0  0  0  0  0
   -0.7152    0.0000    0.0000 C   0  0  0  0  0  0  0  0  0  0  0  0
   -2.1722    0.0000    0.0000 C   0  0  0  0  0  0  0  0  0  0  0  0
   -2.9475    0.0000    0.0000 C   0  0  0  0  0  0  0  0  0  0  0  0
  1  2  1  0      
  2  3  2  0      
  2  4  1  0      
  4  5  1  0      
  5  6  1  0      
  6  7  1  0      
  6  8  1  0      
  8  9  1  0      
  9 10  1  0      
  9 11  1  0      
  9 12  1  0      
 12 13  1  0      
 13 14  1  0      
 14 15  1  0      
 14 16  1  0      
  8 16  1  0      
 16 17  1  0      
 16 18  1  0      
 18 19  1  0      
 18 20  1  0      
 20 21  2  0      
 20 22  1  0      
 22 23  1  0      
 23 24  1  0      
 23 25  1  0      
 25 26  1  0      
  5 26  1  0      
 18 26  1  0      
 26 27  1  0      
 23 28  1  0      
 28 29  2  0      
M  END
>  <Bioactivity>
Forskolin is a ubiquitous activator of eukaryotic adenylyl cyclase (AC) in a wide variety of cell types, commonly used to raise levels of cAMP in the study and research of cell physiology.

>  <CAS>
66575-29-9

>  <Col>
5

>  <Formula>
C22H34O7

>  <ID>
T2939

>  <Index>
524

>  <MOLENAME>
Forskolin

>  <MolWt>
410.51

>  <Pathways>
GPCR/G Protein

>  <Plate>
PLATE 007

>  <QR code>
1151479502

>  <Receptor>
Adenylyl cyclase

>  <Reference>
1. Insel PA, et al. Cell Mol Neurobiol, 2003, 23(3), 305-314.

>  <Row>
E

>  <SMILES>
CC(=O)OC1C(O)C2C(C)(C)CCC(O)C2(C)C2(O)C(=O)CC(C)(OC12C)C=C

>  <Target>
cAMP activator

>  <Weight>
10.1mg

$$$$
Lab-1.sdf
  ChemDraw05232018482D

 13 13  0  0  0  0  0  0  0  0999 V2000
   -1.0717    0.0000    0.0000 N   0  0  0  0  0  0  0  0  0  0  0  0
   -0.3572    0.0000    0.0000 C   0  0  0  0  0  0  0  0  0  0  0  0
    0.3573    0.0000    0.0000 C   0  0  0  0  0  0  0  0  0  0  0  0
    0.3573    0.0000    0.0000 C   0  0  0  0  0  0  0  0  0  0  0  0
    1.0717    0.0000    0.0000 C   0  0  0  0  0  0  0  0  0  0  0  0
    1.0717    0.0000    0.0000 C   0  0  0  0  0  0  0  0  0  0  0  0
    0.3573    0.0000    0.0000 C   0  0  0  0  0  0  0  0  0  0  0  0
    0.3573    0.0000    0.0000 O   0  0  0  0  0  0  0  0  0  0  0  0
   -0.3572    0.0000    0.0000 C   0  0  0  0  0  0  0  0  0  0  0  0
   -0.3572    0.0000    0.0000 C   0  0  0  0  0  0  0  0  0  0  0  0
   -0.3572    0.0000    0.0000 C   0  0  0  0  0  0  0  0  0  0  0  0
   -1.0717    0.0000    0.0000 O   0  0  0  0  0  0  0  0  0  0  0  0
    0.3573    0.0000    0.0000 O   0  0  0  0  0  0  0  0  0  0  0  0
  1  2  1  0      
  2  3  1  0      
  3  4  1  0      
  4  5  2  0      
  5  6  1  0      
  6  7  2  0      
  7  8  1  0      
  7  9  1  0      
  9 10  2  0      
  4 10  1  0      
  2 11  1  0      
 11 12  1  0      
 11 13  2  0      
M  END
>  <Bioactivity>
A non-essential amino acid. In animals it is synthesized from PHENYLALANINE. It is also the precursor of EPINEPHRINE; THYROID HORMONES; and melanin. 

>  <CAS>
60-18-4

>  <Col>
6

>  <Formula>
C9H11NO3

>  <ID>
T0493

>  <Index>
525

>  <MOLENAME>
Tyrosine

>  <MolWt>
181.19

>  <Pathways>
Amino Acids & Building Blocks

>  <Plate>
PLATE 007

>  <QR code>
1151479501

>  <Receptor>
Amino Acids and Derivatives

>  <Reference>
1. Dong S, et al. Blood. 2007 Jul 1;110(1):360-9. 

>  <Row>
E

>  <SMILES>
NC(CC1=CC=C(O)C=C1)C(O)=O

>  <Target>
Amino Acids and Derivatives

>  <Weight>
10.2mg

$$$$
Lab-1.sdf
  ChemDraw05232018482D

 67 74  0  0  0  0  0  0  0  0999 V2000
    0.6187    0.0000    0.0000 C   0  0  0  0  0  0  0  0  0  0  0  0
    1.0312    0.0000    0.0000 C   0  0  0  0  0  0  0  0  0  0  0  0
    0.6187    0.0000    0.0000 C   0  0  0  0  0  0  0  0  0  0  0  0
    1.0312    0.0000    0.0000 C   0  0  0  0  0  0  0  0  0  0  0  0
    1.8562    0.0000    0.0000 C   0  0  0  0  0  0  0  0  0  0  0  0
    2.2687    0.0000    0.0000 C   0  0  0  0  0  0  0  0  0  0  0  0
    3.0937    0.0000    0.0000 C   0  0  0  0  0  0  0  0  0  0  0  0
    3.5062    0.0000    0.0000 C   0  0  0  0  0  0  0  0  0  0  0  0
    3.9187    0.0000    0.0000 C   0  0  0  0  0  0  0  0  0  0  0  0
    3.0937    0.0000    0.0000 C   0  0  0  0  0  0  0  0  0  0  0  0
    3.5062    0.0000    0.0000 C   0  0  0  0  0  0  0  0  0  0  0  0
    4.3312    0.0000    0.0000 C   0  0  0  0  0  0  0  0  0  0  0  0
    4.7437    0.0000    0.0000 C   0  0  0  0  0  0  0  0  0  0  0  0
    5.5687    0.0000    0.0000 C   0  0  0  0  0  0  0  0  0  0  0  0
    5.1562    0.0000    0.0000 C   0  0  0  0  0  0  0  0  0  0  0  0
    5.9812    0.0000    0.0000 C   0  0  0  0  0  0  0  0  0  0  0  0
    6.8062    0.0000    0.0000 C   0  0  0  0  0  0  0  0  0  0  0  0
    7.2187    0.0000    0.0000 O   0  0  0  0  0  0  0  0  0  0  0  0
    7.2187    0.0000    0.0000 C   0  0  0  0  0  0  0  0  0  0  0  0
    8.0437    0.0000    0.0000 O   0  0  0  0  0  0  0  0  0  0  0  0
    6.8062    0.0000    0.0000 C   0  0  0  0  0  0  0  0  0  0  0  0
    6.6629    0.0000    0.0000 C   0  0  0  0  0  0  0  0  0  0  0  0
    7.5814    0.0000    0.0000 C   0  0  0  0  0  0  0  0  0  0  0  0
    7.7247    0.0000    0.0000 O   0  0  0  0  0  0  0  0  0  0  0  0
    5.9812    0.0000    0.0000 C   0  0  0  0  0  0  0  0  0  0  0  0
    5.5687    0.0000    0.0000 C   0  0  0  0  0  0  0  0  0  0  0  0
    4.7437    0.0000    0.0000 C   0  0  0  0  0  0  0  0  0  0  0  0
    4.3312    0.0000    0.0000 C   0  0  0  0  0  0  0  0  0  0  0  0
    4.4174    0.0000    0.0000 C   0  0  0  0  0  0  0  0  0  0  0  0
    2.2687    0.0000    0.0000 C   0  0  0  0  0  0  0  0  0  0  0  0
    1.8562    0.0000    0.0000 C   0  0  0  0  0  0  0  0  0  0  0  0
    2.2687    0.0000    0.0000 C   0  0  0  0  0  0  0  0  0  0  0  0
    1.4437    0.0000    0.0000 C   0  0  0  0  0  0  0  0  0  0  0  0
    1.8562    0.0000    0.0000 O   0  0  0  0  0  0  0  0  0  0  0  0
    0.6187    0.0000    0.0000 O   0  0  0  0  0  0  0  0  0  0  0  0
    0.2062    0.0000    0.0000 C   0  0  0  0  0  0  0  0  0  0  0  0
   -0.6187    0.0000    0.0000 O   0  0  0  0  0  0  0  0  0  0  0  0
   -1.0312    0.0000    0.0000 C   0  0  0  0  0  0  0  0  0  0  0  0
   -1.8562    0.0000    0.0000 C   0  0  0  0  0  0  0  0  0  0  0  0
   -2.2687    0.0000    0.0000 O   0  0  0  0  0  0  0  0  0  0  0  0
   -3.0937    0.0000    0.0000 C   0  0  0  0  0  0  0  0  0  0  0  0
   -3.5062    0.0000    0.0000 O   0  0  0  0  0  0  0  0  0  0  0  0
   -4.3312    0.0000    0.0000 C   0  0  0  0  0  0  0  0  0  0  0  0
   -4.7437    0.0000    0.0000 C   0  0  0  0  0  0  0  0  0  0  0  0
   -5.5687    0.0000    0.0000 O   0  0  0  0  0  0  0  0  0  0  0  0
   -4.7437    0.0000    0.0000 C   0  0  0  0  0  0  0  0  0  0  0  0
   -5.5687    0.0000    0.0000 O   0  0  0  0  0  0  0  0  0  0  0  0
   -5.9812    0.0000    0.0000 C   0  0  0  0  0  0  0  0  0  0  0  0
   -5.5687    0.0000    0.0000 O   0  0  0  0  0  0  0  0  0  0  0  0
   -5.9812    0.0000    0.0000 C   0  0  0  0  0  0  0  0  0  0  0  0
   -5.5687    0.0000    0.0000 C   0  0  0  0  0  0  0  0  0  0  0  0
   -6.8062    0.0000    0.0000 C   0  0  0  0  0  0  0  0  0  0  0  0
   -7.2187    0.0000    0.0000 O   0  0  0  0  0  0  0  0  0  0  0  0
   -7.2187    0.0000    0.0000 C   0  0  0  0  0  0  0  0  0  0  0  0
   -8.0437    0.0000    0.0000 O   0  0  0  0  0  0  0  0  0  0  0  0
   -6.8062    0.0000    0.0000 C   0  0  0  0  0  0  0  0  0  0  0  0
   -7.2187    0.0000    0.0000 O   0  0  0  0  0  0  0  0  0  0  0  0
   -4.3312    0.0000    0.0000 C   0  0  0  0  0  0  0  0  0  0  0  0
   -4.7437    0.0000    0.0000 O   0  0  0  0  0  0  0  0  0  0  0  0
   -3.5062    0.0000    0.0000 C   0  0  0  0  0  0  0  0  0  0  0  0
   -3.0937    0.0000    0.0000 O   0  0  0  0  0  0  0  0  0  0  0  0
   -0.6187    0.0000    0.0000 C   0  0  0  0  0  0  0  0  0  0  0  0
   -1.0312    0.0000    0.0000 O   0  0  0  0  0  0  0  0  0  0  0  0
    0.2062    0.0000    0.0000 C   0  0  0  0  0  0  0  0  0  0  0  0
    0.6187    0.0000    0.0000 O   0  0  0  0  0  0  0  0  0  0  0  0
    0.6187    0.0000    0.0000 C   0  0  0  0  0  0  0  0  0  0  0  0
    1.4437    0.0000    0.0000 O   0  0  0  0  0  0  0  0  0  0  0  0
  1  2  1  0      
  2  3  1  0      
  3  4  1  0      
  4  5  1  0      
  5  6  1  0      
  6  7  1  0      
  7  8  1  0      
  8  9  1  0      
  8 10  1  0      
 10 11  2  0      
 11 12  1  0      
 12 13  1  0      
 13 14  1  0      
 14 15  1  0      
 14 16  1  0      
 16 17  1  0      
 17 18  1  0      
 17 19  1  0      
 19 20  1  0      
 19 21  1  0      
 21 22  1  0      
 21 23  1  0      
 23 24  1  0      
 21 25  1  0      
 14 25  1  0      
 25 26  1  0      
 26 27  1  0      
 27 28  1  0      
  8 28  1  0      
 13 28  1  0      
 28 29  1  0      
 10 30  1  0      
  5 30  1  0      
 30 31  1  0      
  2 31  1  0      
 31 32  1  0      
  5 33  1  0      
 33 34  2  0      
 33 35  1  0      
 35 36  1  0      
 36 37  1  0      
 37 38  1  0      
 38 39  1  0      
 39 40  1  0      
 40 41  1  0      
 41 42  1  0      
 42 43  1  0      
 43 44  1  0      
 44 45  1  0      
 43 46  1  0      
 46 47  1  0      
 47 48  1  0      
 48 49  1  0      
 49 50  1  0      
 50 51  1  0      
 50 52  1  0      
 52 53  1  0      
 52 54  1  0      
 54 55  1  0      
 54 56  1  0      
 48 56  1  0      
 56 57  1  0      
 46 58  1  0      
 58 59  1  0      
 58 60  1  0      
 41 60  1  0      
 60 61  1  0      
 38 62  1  0      
 62 63  1  0      
 62 64  1  0      
 64 65  1  0      
 64 66  1  0      
 36 66  1  0      
 66 67  1  0      
M  END
>  <Bioactivity>
Asiaticoside (Madecassol) is the active chemical component of the plant Centella asiatica. Asiaticoside is used to study potential treatments for wounds and burns.

>  <CAS>
16830-15-2

>  <Col>
7

>  <Formula>
C48H78O19

>  <ID>
T3025

>  <Index>
526

>  <MOLENAME>
Asiaticoside

>  <MolWt>
959.15

>  <Pathways>
Immunology/Inflammation

>  <Plate>
PLATE 007

>  <QR code>
1151479500

>  <Receptor>
TGF-¦Â1; p38 MAPK

>  <Reference>
1. Luo Y, et al. Mol Med Rep. 2015 Dec;12(6):8294-300.

>  <Row>
E

>  <SMILES>
CC1CCC2(CCC3(C)C(=CCC4C5(C)CC(O)C(O)C(C)(CO)C5CCC34C)C2C1C)C(=O)OC1OC(COC2OC(CO)C(OC3OC(C)C(O)C(O)C3O)C(O)C2O)C(O)C(O)C1O

>  <Target>
TGF-beta/Smad inhibitor; p38 MAPK inhibitor

>  <Weight>
10.2mg

$$$$
Lab-1.sdf
  ChemDraw05232018482D

 62 68  0  0  0  0  0  0  0  0999 V2000
    6.1143    0.0000    0.0000 C   0  0  0  0  0  0  0  0  0  0  0  0
    5.4631    0.0000    0.0000 C   0  0  0  0  0  0  0  0  0  0  0  0
    4.6988    0.0000    0.0000 C   0  0  0  0  0  0  0  0  0  0  0  0
    4.5857    0.0000    0.0000 C   0  0  0  0  0  0  0  0  0  0  0  0
    4.0477    0.0000    0.0000 C   0  0  0  0  0  0  0  0  0  0  0  0
    3.2834    0.0000    0.0000 O   0  0  0  0  0  0  0  0  0  0  0  0
    2.6322    0.0000    0.0000 C   0  0  0  0  0  0  0  0  0  0  0  0
    2.7454    0.0000    0.0000 C   0  0  0  0  0  0  0  0  0  0  0  0
    3.5097    0.0000    0.0000 C   0  0  0  0  0  0  0  0  0  0  0  0
    4.1608    0.0000    0.0000 C   0  0  0  0  0  0  0  0  0  0  0  0
    4.9251    0.0000    0.0000 C   0  0  0  0  0  0  0  0  0  0  0  0
    1.9811    0.0000    0.0000 C   0  0  0  0  0  0  0  0  0  0  0  0
    1.2168    0.0000    0.0000 C   0  0  0  0  0  0  0  0  0  0  0  0
    1.1036    0.0000    0.0000 C   0  0  0  0  0  0  0  0  0  0  0  0
    1.7548    0.0000    0.0000 C   0  0  0  0  0  0  0  0  0  0  0  0
    1.6417    0.0000    0.0000 C   0  0  0  0  0  0  0  0  0  0  0  0
    0.8774    0.0000    0.0000 C   0  0  0  0  0  0  0  0  0  0  0  0
    0.7642    0.0000    0.0000 C   0  0  0  0  0  0  0  0  0  0  0  0
    1.4154    0.0000    0.0000 C   0  0  0  0  0  0  0  0  0  0  0  0
   -0.0001    0.0000    0.0000 C   0  0  0  0  0  0  0  0  0  0  0  0
   -0.1132    0.0000    0.0000 O   0  0  0  0  0  0  0  0  0  0  0  0
   -0.8774    0.0000    0.0000 C   0  0  0  0  0  0  0  0  0  0  0  0
   -0.9905    0.0000    0.0000 C   0  0  0  0  0  0  0  0  0  0  0  0
   -1.7548    0.0000    0.0000 C   0  0  0  0  0  0  0  0  0  0  0  0
   -1.8680    0.0000    0.0000 O   0  0  0  0  0  0  0  0  0  0  0  0
   -2.6323    0.0000    0.0000 C   0  0  0  0  0  0  0  0  0  0  0  0
   -2.4060    0.0000    0.0000 C   0  0  0  0  0  0  0  0  0  0  0  0
   -3.1703    0.0000    0.0000 O   0  0  0  0  0  0  0  0  0  0  0  0
   -3.8214    0.0000    0.0000 C   0  0  0  0  0  0  0  0  0  0  0  0
   -4.5857    0.0000    0.0000 C   0  0  0  0  0  0  0  0  0  0  0  0
   -5.2369    0.0000    0.0000 C   0  0  0  0  0  0  0  0  0  0  0  0
   -6.0011    0.0000    0.0000 O   0  0  0  0  0  0  0  0  0  0  0  0
   -6.1143    0.0000    0.0000 C   0  0  0  0  0  0  0  0  0  0  0  0
   -5.1237    0.0000    0.0000 C   0  0  0  0  0  0  0  0  0  0  0  0
   -5.7749    0.0000    0.0000 O   0  0  0  0  0  0  0  0  0  0  0  0
   -4.3594    0.0000    0.0000 C   0  0  0  0  0  0  0  0  0  0  0  0
   -4.2463    0.0000    0.0000 C   0  0  0  0  0  0  0  0  0  0  0  0
   -3.7083    0.0000    0.0000 O   0  0  0  0  0  0  0  0  0  0  0  0
   -2.2928    0.0000    0.0000 C   0  0  0  0  0  0  0  0  0  0  0  0
   -2.9440    0.0000    0.0000 C   0  0  0  0  0  0  0  0  0  0  0  0
   -1.5285    0.0000    0.0000 O   0  0  0  0  0  0  0  0  0  0  0  0
   -0.6511    0.0000    0.0000 C   0  0  0  0  0  0  0  0  0  0  0  0
   -1.4154    0.0000    0.0000 C   0  0  0  0  0  0  0  0  0  0  0  0
   -0.5380    0.0000    0.0000 C   0  0  0  0  0  0  0  0  0  0  0  0
   -1.1891    0.0000    0.0000 C   0  0  0  0  0  0  0  0  0  0  0  0
   -1.0760    0.0000    0.0000 C   0  0  0  0  0  0  0  0  0  0  0  0
   -1.7271    0.0000    0.0000 C   0  0  0  0  0  0  0  0  0  0  0  0
   -2.5500    0.0000    0.0000 C   0  0  0  0  0  0  0  0  0  0  0  0
   -2.8606    0.0000    0.0000 O   0  0  0  0  0  0  0  0  0  0  0  0
   -2.2297    0.0000    0.0000 C   0  0  0  0  0  0  0  0  0  0  0  0
   -2.2026    0.0000    0.0000 C   0  0  0  0  0  0  0  0  0  0  0  0
   -2.9032    0.0000    0.0000 O   0  0  0  0  0  0  0  0  0  0  0  0
   -1.4750    0.0000    0.0000 C   0  0  0  0  0  0  0  0  0  0  0  0
   -1.4479    0.0000    0.0000 C   0  0  0  0  0  0  0  0  0  0  0  0
   -0.7745    0.0000    0.0000 C   0  0  0  0  0  0  0  0  0  0  0  0
   -0.8497    0.0000    0.0000 C   0  0  0  0  0  0  0  0  0  0  0  0
   -0.1987    0.0000    0.0000 C   0  0  0  0  0  0  0  0  0  0  0  0
   -0.3117    0.0000    0.0000 O   0  0  0  0  0  0  0  0  0  0  0  0
    0.5656    0.0000    0.0000 O   0  0  0  0  0  0  0  0  0  0  0  0
   -1.6140    0.0000    0.0000 C   0  0  0  0  0  0  0  0  0  0  0  0
   -1.5267    0.0000    0.0000 O   0  0  0  0  0  0  0  0  0  0  0  0
    2.5191    0.0000    0.0000 O   0  0  0  0  0  0  0  0  0  0  0  0
  1  2  1  0      
  2  3  1  0      
  3  4  1  0      
  3  5  1  0      
  5  6  1  0      
  6  7  1  0      
  7  8  1  0      
  8  9  1  0      
  9 10  1  0      
  5 10  1  0      
 10 11  1  0      
  7 12  1  0      
 12 13  1  0      
 13 14  1  0      
 14 15  1  0      
 15 16  1  0      
 17 16  1  4      
 17 18  2  0      
 18 19  1  0      
 18 20  1  0      
 20 21  1  0      
 21 22  1  0      
 22 23  1  0      
 23 24  1  0      
 24 25  1  0      
 25 26  1  0      
 24 27  1  0      
 27 28  1  0      
 28 29  1  0      
 29 30  1  0      
 30 31  1  0      
 31 32  1  0      
 32 33  1  0      
 31 34  1  0      
 34 35  1  0      
 34 36  1  0      
 36 37  1  0      
 36 38  1  0      
 29 38  1  0      
 27 39  1  0      
 39 40  1  0      
 39 41  1  0      
 22 41  1  0      
 20 42  1  0      
 42 43  1  0      
 44 42  1  4      
 44 45  2  0      
 46 45  1  4      
 46 47  2  0      
 47 48  1  0      
 48 49  1  0      
 49 50  1  0      
 50 51  1  0      
 51 52  1  0      
 51 53  1  0      
 53 54  1  0      
 53 55  2  0      
 55 56  1  0      
 56 57  1  0      
 57 58  2  0      
 57 59  1  0      
 13 59  1  0      
 56 60  1  0      
 47 60  1  0      
 50 60  1  0      
 60 61  1  0      
 15 62  1  0      
  7 62  1  0      
M  END
>  <Bioactivity>
Ivermectin is a broad-spectrum antiparasitic drug in the avermectin family. It is taken internally or used topically, depending on the treated condition.

>  <CAS>
70288-86-7

>  <Col>
8

>  <Formula>
C48H74O14

>  <ID>
T1131

>  <Index>
527

>  <MOLENAME>
Ivermectin

>  <MolWt>
875.09

>  <Pathways>
Membrane Transporter/Ion Channel; Neuroscience

>  <Plate>
PLATE 007

>  <QR code>
1151479499

>  <Receptor>
GluCl channel; P2X purinergic receptor

>  <Reference>
1. Wagstaff KM, et al. Biochem J, 2012, 443(3), 851-856.

>  <Row>
E

>  <SMILES>
CCC(C)C1OC2(CCC1C)CC1CC(CC=C(C)C(OC3CC(OC)C(OC4CC(OC)C(O)C(C)O4)C(C)O3)C(C)C=CC=C3COC4C(O)C(C)=CC(C(=O)O1)C34O)O2

>  <Target>
GluCl Channel activator; P2 Receptor modulator

>  <Weight>
10.3mg

$$$$
Lab-1.sdf
  ChemDraw05232018482D

 19 21  0  0  0  0  0  0  0  0999 V2000
   -2.8578    0.0000    0.0000 O   0  0  0  0  0  0  0  0  0  0  0  0
   -2.1434    0.0000    0.0000 C   0  0  0  0  0  0  0  0  0  0  0  0
   -1.4290    0.0000    0.0000 C   0  0  0  0  0  0  0  0  0  0  0  0
   -1.4290    0.0000    0.0000 O   0  0  0  0  0  0  0  0  0  0  0  0
   -0.7145    0.0000    0.0000 C   0  0  0  0  0  0  0  0  0  0  0  0
   -0.7145    0.0000    0.0000 C   0  0  0  0  0  0  0  0  0  0  0  0
   -1.4290    0.0000    0.0000 C   0  0  0  0  0  0  0  0  0  0  0  0
   -2.1434    0.0000    0.0000 C   0  0  0  0  0  0  0  0  0  0  0  0
   -0.0001    0.0000    0.0000 C   0  0  0  0  0  0  0  0  0  0  0  0
   -0.0001    0.0000    0.0000 O   0  0  0  0  0  0  0  0  0  0  0  0
    0.7145    0.0000    0.0000 C   0  0  0  0  0  0  0  0  0  0  0  0
    0.7145    0.0000    0.0000 C   0  0  0  0  0  0  0  0  0  0  0  0
   -0.0001    0.0000    0.0000 O   0  0  0  0  0  0  0  0  0  0  0  0
    1.4289    0.0000    0.0000 C   0  0  0  0  0  0  0  0  0  0  0  0
    2.1434    0.0000    0.0000 C   0  0  0  0  0  0  0  0  0  0  0  0
    2.8578    0.0000    0.0000 C   0  0  0  0  0  0  0  0  0  0  0  0
    2.8578    0.0000    0.0000 C   0  0  0  0  0  0  0  0  0  0  0  0
    2.1434    0.0000    0.0000 C   0  0  0  0  0  0  0  0  0  0  0  0
    1.4289    0.0000    0.0000 C   0  0  0  0  0  0  0  0  0  0  0  0
  1  2  1  0      
  2  3  2  0      
  3  4  1  0      
  3  5  1  0      
  5  6  2  0      
  6  7  1  0      
  7  8  2  0      
  2  8  1  0      
  6  9  1  0      
  9 10  2  0      
  9 11  1  0      
 11 12  2  0      
 12 13  1  0      
  5 13  1  0      
 12 14  1  0      
 14 15  2  0      
 15 16  1  0      
 16 17  2  0      
 17 18  1  0      
 18 19  2  0      
 14 19  1  0      
M  END
>  <Bioactivity>
7,8-Dihydroxyflavone (7,8-DHF) is a naturally-occurring flavone found in Godmania aesculifolia, Tridax procumbens, and primula tree leaves.

>  <CAS>
38183-03-8

>  <Col>
9

>  <Formula>
C15H10O4

>  <ID>
T2816

>  <Index>
528

>  <MOLENAME>
7,8-Dihydroxyflavone

>  <MolWt>
254.24

>  <Pathways>
Tyrosine Kinase/Adaptors

>  <Plate>
PLATE 007

>  <QR code>
1151479498

>  <Receptor>
TrkB

>  <Reference>
1. Lee RH, et al. Oncol Rep. 2015 Feb;33(2):631-8. 

>  <Row>
E

>  <SMILES>
OC1=C(O)C2=C(C=C1)C(=O)C=C(O2)C1=CC=CC=C1

>  <Target>
Trk receptor inhibitor

>  <Weight>
10.4mg

$$$$
Lab-1.sdf
  ChemDraw05232018482D

 14 15  0  0  0  0  0  0  0  0999 V2000
   -1.7861    0.0000    0.0000 C   0  0  0  0  0  0  0  0  0  0  0  0
   -1.0718    0.0000    0.0000 C   0  0  0  0  0  0  0  0  0  0  0  0
   -1.0718    0.0000    0.0000 C   0  0  0  0  0  0  0  0  0  0  0  0
   -0.3573    0.0000    0.0000 C   0  0  0  0  0  0  0  0  0  0  0  0
   -0.3573    0.0000    0.0000 O   0  0  0  0  0  0  0  0  0  0  0  0
    0.3572    0.0000    0.0000 C   0  0  0  0  0  0  0  0  0  0  0  0
    0.3572    0.0000    0.0000 C   0  0  0  0  0  0  0  0  0  0  0  0
    1.0716    0.0000    0.0000 C   0  0  0  0  0  0  0  0  0  0  0  0
    1.7861    0.0000    0.0000 C   0  0  0  0  0  0  0  0  0  0  0  0
    1.7861    0.0000    0.0000 C   0  0  0  0  0  0  0  0  0  0  0  0
    1.0716    0.0000    0.0000 C   0  0  0  0  0  0  0  0  0  0  0  0
    1.0716    0.0000    0.0000 O   0  0  0  0  0  0  0  0  0  0  0  0
   -0.3573    0.0000    0.0000 C   0  0  0  0  0  0  0  0  0  0  0  0
   -0.3573    0.0000    0.0000 O   0  0  0  0  0  0  0  0  0  0  0  0
  1  2  1  0      
  2  3  2  0      
  3  4  1  0      
  4  5  2  0      
  4  6  1  0      
  6  7  2  0      
  7  8  1  0      
  8  9  2  0      
  9 10  1  0      
 10 11  2  0      
  6 11  1  0      
 11 12  1  0      
  7 13  1  0      
  2 13  1  0      
 13 14  2  0      
M  END
>  <Bioactivity>
Plumbagin or 5-hydroxy-2-methyl-1,4-naphthoquinone is an organic compound with the chemical formula C11H8O3. It is regarded as a toxin[1] and it is genotoxic[2] and mutagenic.[3]

>  <CAS>
481-42-5

>  <Col>
10

>  <Formula>
C11H8O3

>  <ID>
T2841

>  <Index>
529

>  <MOLENAME>
Plumbagin

>  <MolWt>
188.18

>  <Pathways>
Immunology/Inflammation

>  <Plate>
PLATE 007

>  <QR code>
1151479497

>  <Receptor>
ROS

>  <Reference>
1. Sumsakul W,et al. Asian Pac J Trop Med. 2015 Nov;8(11):914-918. 

>  <Row>
E

>  <SMILES>
CC1=CC(=O)C2=C(C=CC=C2O)C1=O

>  <Target>
ROS 

>  <Weight>
10.2mg

$$$$
Lab-1.sdf
  ChemDraw05232018482D

 11 12  0  0  0  0  0  0  0  0999 V2000
   -1.2127    0.0000    0.0000 C   0  0  0  0  0  0  0  0  0  0  0  0
   -0.4224    0.0000    0.0000 C   0  0  0  0  0  0  0  0  0  0  0  0
   -1.2127    0.0000    0.0000 C   0  0  0  0  0  0  0  0  0  0  0  0
   -0.2162    0.0000    0.0000 C   0  0  0  0  0  0  0  0  0  0  0  0
   -0.9306    0.0000    0.0000 C   0  0  0  0  0  0  0  0  0  0  0  0
   -0.9306    0.0000    0.0000 C   0  0  0  0  0  0  0  0  0  0  0  0
   -0.2162    0.0000    0.0000 C   0  0  0  0  0  0  0  0  0  0  0  0
   -0.2162    0.0000    0.0000 C   0  0  0  0  0  0  0  0  0  0  0  0
    0.4982    0.0000    0.0000 C   0  0  0  0  0  0  0  0  0  0  0  0
    1.2127    0.0000    0.0000 O   0  0  0  0  0  0  0  0  0  0  0  0
    0.4982    0.0000    0.0000 C   0  0  0  0  0  0  0  0  0  0  0  0
  1  2  1  0      
  2  3  1  0      
  2  4  1  0      
  4  5  1  0      
  5  6  1  0      
  6  7  1  0      
  2  7  1  0      
  7  8  1  0      
  7  9  1  0      
  9 10  1  0      
  9 11  1  0      
  4 11  1  0      
M  END
>  <Bioactivity>
Extracted from Cinnamomum cassia;Suitability:Ethanol,ether,petroleum ether,benzene,toluene,acetone,decalin,tetralin;Store the product in sealed,cool and dry condition

>  <CAS>
507-70-0

>  <Col>
11

>  <Formula>
C10H18O

>  <ID>
T3038

>  <Index>
530

>  <MOLENAME>
Borneol

>  <MolWt>
154.24

>  <Pathways>
Metabolism

>  <Plate>
PLATE 007

>  <QR code>
1151479496

>  <Receptor>
CYP2D

>  <Reference>
1. Yin Q, et al. Int J Mol Sci. 2014 Nov 6;15(11):20365-81. 

>  <Row>
E

>  <SMILES>
CC1(C)C2CCC1(C)C(O)C2

>  <Target>
CYP inhibitor

>  <Weight>
10.2mg

$$$$
Lab-1.sdf
  ChemDraw05232018482D

 33 37  0  0  0  0  0  0  0  0999 V2000
    3.3849    0.0000    0.0000 C   0  0  0  0  0  0  0  0  0  0  0  0
    2.9724    0.0000    0.0000 C   0  0  0  0  0  0  0  0  0  0  0  0
    3.3849    0.0000    0.0000 C   0  0  0  0  0  0  0  0  0  0  0  0
    4.2099    0.0000    0.0000 O   0  0  0  0  0  0  0  0  0  0  0  0
    2.9724    0.0000    0.0000 C   0  0  0  0  0  0  0  0  0  0  0  0
    3.3849    0.0000    0.0000 O   0  0  0  0  0  0  0  0  0  0  0  0
    2.1474    0.0000    0.0000 C   0  0  0  0  0  0  0  0  0  0  0  0
    1.7349    0.0000    0.0000 C   0  0  0  0  0  0  0  0  0  0  0  0
    2.1474    0.0000    0.0000 C   0  0  0  0  0  0  0  0  0  0  0  0
    1.7349    0.0000    0.0000 C   0  0  0  0  0  0  0  0  0  0  0  0
    0.9099    0.0000    0.0000 C   0  0  0  0  0  0  0  0  0  0  0  0
    0.4974    0.0000    0.0000 C   0  0  0  0  0  0  0  0  0  0  0  0
    0.9099    0.0000    0.0000 C   0  0  0  0  0  0  0  0  0  0  0  0
    1.3224    0.0000    0.0000 C   0  0  0  0  0  0  0  0  0  0  0  0
    0.4974    0.0000    0.0000 C   0  0  0  0  0  0  0  0  0  0  0  0
   -0.3276    0.0000    0.0000 C   0  0  0  0  0  0  0  0  0  0  0  0
   -0.7401    0.0000    0.0000 C   0  0  0  0  0  0  0  0  0  0  0  0
   -1.1526    0.0000    0.0000 C   0  0  0  0  0  0  0  0  0  0  0  0
   -1.5651    0.0000    0.0000 C   0  0  0  0  0  0  0  0  0  0  0  0
   -1.9776    0.0000    0.0000 C   0  0  0  0  0  0  0  0  0  0  0  0
   -2.8026    0.0000    0.0000 C   0  0  0  0  0  0  0  0  0  0  0  0
   -2.6594    0.0000    0.0000 C   0  0  0  0  0  0  0  0  0  0  0  0
   -3.2151    0.0000    0.0000 C   0  0  0  0  0  0  0  0  0  0  0  0
   -2.8026    0.0000    0.0000 C   0  0  0  0  0  0  0  0  0  0  0  0
   -1.9776    0.0000    0.0000 C   0  0  0  0  0  0  0  0  0  0  0  0
   -2.3901    0.0000    0.0000 C   0  0  0  0  0  0  0  0  0  0  0  0
   -1.5651    0.0000    0.0000 C   0  0  0  0  0  0  0  0  0  0  0  0
   -0.7401    0.0000    0.0000 C   0  0  0  0  0  0  0  0  0  0  0  0
   -0.3276    0.0000    0.0000 C   0  0  0  0  0  0  0  0  0  0  0  0
    0.0849    0.0000    0.0000 C   0  0  0  0  0  0  0  0  0  0  0  0
   -3.5779    0.0000    0.0000 C   0  0  0  0  0  0  0  0  0  0  0  0
   -3.7211    0.0000    0.0000 O   0  0  0  0  0  0  0  0  0  0  0  0
   -4.2099    0.0000    0.0000 O   0  0  0  0  0  0  0  0  0  0  0  0
  1  2  1  0      
  2  3  2  0      
  3  4  1  0      
  3  5  1  0      
  5  6  2  0      
  5  7  1  0      
  7  8  2  0      
  8  9  1  0      
  2  9  1  0      
  9 10  2  0      
 10 11  1  0      
 11 12  2  0      
 12 13  1  0      
  8 13  1  0      
 13 14  1  0      
 13 15  1  0      
 15 16  1  0      
 16 17  1  0      
 17 18  1  0      
 17 19  1  0      
 19 20  1  0      
 20 21  1  0      
 21 22  1  0      
 21 23  1  0      
 23 24  1  0      
 24 25  1  0      
 19 25  1  0      
 25 26  1  0      
 25 27  1  0      
 27 28  1  0      
 28 29  1  0      
 12 29  1  0      
 17 29  1  0      
 29 30  1  0      
 21 31  1  0      
 31 32  1  0      
 31 33  2  0      
M  END
>  <Bioactivity>
Celastrol is a potent proteasome inhibitor for the chymotrypsin-like activity of a purified 20S proteasome with IC50 of 2.5 ¦ÌM.

>  <CAS>
34157-83-0

>  <Col>
2

>  <Formula>
C29H38O4

>  <ID>
T3028

>  <Index>
531

>  <MOLENAME>
Celastrol

>  <MolWt>
450.62

>  <Pathways>
Proteases/Proteasome

>  <Plate>
PLATE 007

>  <QR code>
1151479484

>  <Receptor>
20S proteasome

>  <Reference>
1. Yang H, et al. Y Res, 2006, 66(9), 4758-4765.

>  <Row>
F

>  <SMILES>
CC1=C(O)C(=O)C=C2C1=CC=C1C2(C)CCC2(C)C3CC(C)(CCC3(C)CCC12C)C(O)=O

>  <Target>
Proteasome inhibitor

>  <Weight>
10.1mg

$$$$
Lab-1.sdf
  ChemDraw05232018482D

 18 20  0  0  0  0  0  0  0  0999 V2000
    0.5918    0.0000    0.0000 C   0  0  0  0  0  0  0  0  0  0  0  0
    0.6440    0.0000    0.0000 C   0  0  0  0  0  0  0  0  0  0  0  0
   -0.4455    0.0000    0.0000 C   0  0  0  0  0  0  0  0  0  0  0  0
   -1.0412    0.0000    0.0000 C   0  0  0  0  0  0  0  0  0  0  0  0
   -0.2183    0.0000    0.0000 C   0  0  0  0  0  0  0  0  0  0  0  0
    0.3216    0.0000    0.0000 C   0  0  0  0  0  0  0  0  0  0  0  0
    0.2624    0.0000    0.0000 C   0  0  0  0  0  0  0  0  0  0  0  0
    0.9455    0.0000    0.0000 C   0  0  0  0  0  0  0  0  0  0  0  0
    1.6876    0.0000    0.0000 C   0  0  0  0  0  0  0  0  0  0  0  0
    1.7468    0.0000    0.0000 C   0  0  0  0  0  0  0  0  0  0  0  0
    2.5475    0.0000    0.0000 O   0  0  0  0  0  0  0  0  0  0  0  0
    1.0638    0.0000    0.0000 N   0  0  0  0  0  0  0  0  0  0  0  0
   -0.3611    0.0000    0.0000 C   0  0  0  0  0  0  0  0  0  0  0  0
   -0.2301    0.0000    0.0000 N   0  0  0  0  0  0  0  0  0  0  0  0
   -1.1840    0.0000    0.0000 C   0  0  0  0  0  0  0  0  0  0  0  0
   -1.7240    0.0000    0.0000 C   0  0  0  0  0  0  0  0  0  0  0  0
   -2.5475    0.0000    0.0000 C   0  0  0  0  0  0  0  0  0  0  0  0
   -1.6648    0.0000    0.0000 C   0  0  0  0  0  0  0  0  0  0  0  0
  2  1  1  4      
  2  3  2  0      
  3  4  1  0      
  4  5  1  0      
  5  6  1  0      
  6  7  2  0      
  7  8  1  0      
  8  9  2  0      
  9 10  1  0      
 10 11  2  0      
 10 12  1  0      
  6 12  1  0      
  7 13  1  0      
  3 13  1  0      
 13 14  1  0      
 13 15  1  0      
 15 16  1  0      
 16 17  1  0      
 16 18  2  0      
  4 18  1  0      
M  END
>  <Bioactivity>
Huperzine A, an active Lycopodium alkaloid extracted from traditional Chinese herb, is a potent, selective and reversible acetylcholinesterase (AChE) inhibitor and has been widely used in China for th
e treatment of Alzheimer&#39;s disease (AD).

>  <CAS>
102518-79-6

>  <Col>
3

>  <Formula>
C15H18N2O

>  <ID>
T3026

>  <Index>
532

>  <MOLENAME>
(-)-Huperzine A (HupA)

>  <MolWt>
242.32

>  <Pathways>
Neuroscience

>  <Plate>
PLATE 007

>  <QR code>
1151479485

>  <Receptor>
AChE (G4 form)

>  <Reference>
1. Zhao Q, et al. Eur J Pharmacol, 2002, 455(2-3), 101-107.

>  <Row>
F

>  <SMILES>
CC=C1C2CC3=C(C=CC(=O)N3)C1(N)CC(C)=C2

>  <Target>
GluR inhibitor; AChR inhibitor

>  <Weight>
10.4mg

$$$$
Lab-1.sdf
  ChemDraw05232018482D

 16 16  0  0  0  0  0  0  0  0999 V2000
   -1.0802    0.0000    0.0000 C   0  0  0  0  0  0  0  0  0  0  0  0
   -0.2700    0.0000    0.0000 C   0  0  0  0  0  0  0  0  0  0  0  0
    0.0000    0.0000    0.0000 C   0  0  0  0  0  0  0  0  0  0  0  0
    0.2700    0.0000    0.0000 C   0  0  0  0  0  0  0  0  0  0  0  0
    1.0802    0.0000    0.0000 C   0  0  0  0  0  0  0  0  0  0  0  0
    1.6202    0.0000    0.0000 C   0  0  0  0  0  0  0  0  0  0  0  0
    1.3502    0.0000    0.0000 C   0  0  0  0  0  0  0  0  0  0  0  0
    1.8902    0.0000    0.0000 C   0  0  0  0  0  0  0  0  0  0  0  0
    0.5401    0.0000    0.0000 C   0  0  0  0  0  0  0  0  0  0  0  0
    0.2700    0.0000    0.0000 C   0  0  0  0  0  0  0  0  0  0  0  0
   -0.5401    0.0000    0.0000 C   0  0  0  0  0  0  0  0  0  0  0  0
   -1.0802    0.0000    0.0000 C   0  0  0  0  0  0  0  0  0  0  0  0
   -1.8902    0.0000    0.0000 C   0  0  0  0  0  0  0  0  0  0  0  0
   -0.8101    0.0000    0.0000 C   0  0  0  0  0  0  0  0  0  0  0  0
    0.0000    0.0000    0.0000 C   0  0  0  0  0  0  0  0  0  0  0  0
    0.0704    0.0000    0.0000 O   0  0  0  0  0  0  0  0  0  0  0  0
  1  2  1  0      
  2  3  1  0      
  2  4  2  0      
  4  5  1  0      
  6  5  1  4      
  6  7  2  0      
  7  8  1  0      
  7  9  1  0      
  9 10  1  0      
 11 10  1  4      
 11 12  2  0      
 12 13  1  0      
 12 14  1  0      
 14 15  1  0      
  4 15  1  0      
 15 16  2  0      
M  END
>  <Bioactivity>
Extracted from Curcuma,Curcuma aromatica;Store the product in sealed,cool and dry condition

>  <CAS>
6902-91-6

>  <Col>
4

>  <Formula>
C15H22O

>  <ID>
T2945

>  <Index>
533

>  <MOLENAME>
Germacrone

>  <MolWt>
218.17

>  <Pathways>
Others

>  <Plate>
PLATE 007

>  <QR code>
1151479486

>  <Receptor>
Others

>  <Reference>
1. Xie XH, et al. Exp Ther Med. 2014 Nov;8(5):1611-1615. 

>  <Row>
F

>  <SMILES>
CC(C)=C1CC=C(C)CCC=C(C)CC1=O

>  <Target>
Others

>  <Weight>
10.2mg

$$$$
Lab-1.sdf
  ChemDraw05232018482D

 44 48  0  0  0  0  0  0  0  0999 V2000
   -5.4586    0.0000    0.0000 C   0  0  0  0  0  0  0  0  0  0  0  0
   -4.9523    0.0000    0.0000 C   0  0  0  0  0  0  0  0  0  0  0  0
   -4.1349    0.0000    0.0000 C   0  0  0  0  0  0  0  0  0  0  0  0
   -5.2632    0.0000    0.0000 C   0  0  0  0  0  0  0  0  0  0  0  0
   -4.7568    0.0000    0.0000 C   0  0  0  0  0  0  0  0  0  0  0  0
   -3.9395    0.0000    0.0000 C   0  0  0  0  0  0  0  0  0  0  0  0
   -3.4331    0.0000    0.0000 C   0  0  0  0  0  0  0  0  0  0  0  0
   -4.0844    0.0000    0.0000 C   0  0  0  0  0  0  0  0  0  0  0  0
   -2.7818    0.0000    0.0000 O   0  0  0  0  0  0  0  0  0  0  0  0
   -2.9267    0.0000    0.0000 C   0  0  0  0  0  0  0  0  0  0  0  0
   -3.1561    0.0000    0.0000 C   0  0  0  0  0  0  0  0  0  0  0  0
   -2.4732    0.0000    0.0000 C   0  0  0  0  0  0  0  0  0  0  0  0
   -1.8219    0.0000    0.0000 C   0  0  0  0  0  0  0  0  0  0  0  0
   -1.6242    0.0000    0.0000 C   0  0  0  0  0  0  0  0  0  0  0  0
   -2.1022    0.0000    0.0000 C   0  0  0  0  0  0  0  0  0  0  0  0
   -1.5704    0.0000    0.0000 C   0  0  0  0  0  0  0  0  0  0  0  0
   -1.8507    0.0000    0.0000 O   0  0  0  0  0  0  0  0  0  0  0  0
   -0.7582    0.0000    0.0000 C   0  0  0  0  0  0  0  0  0  0  0  0
   -0.4779    0.0000    0.0000 C   0  0  0  0  0  0  0  0  0  0  0  0
    0.3343    0.0000    0.0000 C   0  0  0  0  0  0  0  0  0  0  0  0
    0.0540    0.0000    0.0000 C   0  0  0  0  0  0  0  0  0  0  0  0
    0.8661    0.0000    0.0000 C   0  0  0  0  0  0  0  0  0  0  0  0
    1.6782    0.0000    0.0000 C   0  0  0  0  0  0  0  0  0  0  0  0
    1.9585    0.0000    0.0000 C   0  0  0  0  0  0  0  0  0  0  0  0
    2.7706    0.0000    0.0000 O   0  0  0  0  0  0  0  0  0  0  0  0
    3.3025    0.0000    0.0000 C   0  0  0  0  0  0  0  0  0  0  0  0
    3.0222    0.0000    0.0000 O   0  0  0  0  0  0  0  0  0  0  0  0
    3.5540    0.0000    0.0000 C   0  0  0  0  0  0  0  0  0  0  0  0
    3.2737    0.0000    0.0000 C   0  0  0  0  0  0  0  0  0  0  0  0
    2.4616    0.0000    0.0000 O   0  0  0  0  0  0  0  0  0  0  0  0
    4.3662    0.0000    0.0000 C   0  0  0  0  0  0  0  0  0  0  0  0
    4.8980    0.0000    0.0000 O   0  0  0  0  0  0  0  0  0  0  0  0
    4.6465    0.0000    0.0000 C   0  0  0  0  0  0  0  0  0  0  0  0
    5.4586    0.0000    0.0000 O   0  0  0  0  0  0  0  0  0  0  0  0
    4.1146    0.0000    0.0000 C   0  0  0  0  0  0  0  0  0  0  0  0
    4.3950    0.0000    0.0000 O   0  0  0  0  0  0  0  0  0  0  0  0
    1.4267    0.0000    0.0000 C   0  0  0  0  0  0  0  0  0  0  0  0
    2.1402    0.0000    0.0000 C   0  0  0  0  0  0  0  0  0  0  0  0
    1.1427    0.0000    0.0000 C   0  0  0  0  0  0  0  0  0  0  0  0
    0.6146    0.0000    0.0000 C   0  0  0  0  0  0  0  0  0  0  0  0
    0.0828    0.0000    0.0000 C   0  0  0  0  0  0  0  0  0  0  0  0
   -0.7295    0.0000    0.0000 C   0  0  0  0  0  0  0  0  0  0  0  0
   -1.0098    0.0000    0.0000 C   0  0  0  0  0  0  0  0  0  0  0  0
   -1.3207    0.0000    0.0000 C   0  0  0  0  0  0  0  0  0  0  0  0
  1  2  1  0      
  2  3  1  0      
  2  4  2  0      
  4  5  1  0      
  5  6  1  0      
  6  7  1  0      
  7  8  1  0      
  7  9  1  0      
  7 10  1  0      
 10 11  1  0      
 11 12  1  0      
 12 13  1  0      
 13 14  1  0      
 13 15  1  0      
 10 15  1  0      
 15 16  1  0      
 16 17  1  0      
 16 18  1  0      
 18 19  1  0      
 19 20  1  0      
 20 21  1  0      
 20 22  1  0      
 22 23  1  0      
 23 24  1  0      
 24 25  1  0      
 25 26  1  0      
 26 27  1  0      
 27 28  1  0      
 28 29  1  0      
 29 30  1  0      
 28 31  1  0      
 31 32  1  0      
 31 33  1  0      
 33 34  1  0      
 33 35  1  0      
 26 35  1  0      
 35 36  1  0      
 24 37  1  0      
 37 38  1  0      
 37 39  1  0      
 37 40  1  0      
 20 40  1  0      
 40 41  1  0      
 41 42  1  0      
 42 43  1  0      
 13 43  1  0      
 19 43  1  0      
 43 44  1  0      
M  END
>  <Bioactivity>
Ginsenoside Rh2, an extract of red Panax ginseng, is a potent anti-inflammatory and antiY drug. Extracted from Panax ginseng C. A. Mey.;Store the product in sealed,cool and dry condition

>  <CAS>
78214-33-2

>  <Col>
5

>  <Formula>
C36H62O8

>  <ID>
T2959

>  <Index>
534

>  <MOLENAME>
Ginsenoside Rh2

>  <MolWt>
622.87

>  <Pathways>
Tyrosine Kinase/Adaptors

>  <Plate>
PLATE 007

>  <QR code>
1151479487

>  <Receptor>
EGFR

>  <Reference>
1. Zhang H, et al. Int J Clin Exp Pathol. 2015 May 1;8(5):4444-56. 

>  <Row>
F

>  <SMILES>
CC(C)=CCCC(C)(O)C1CCC2(C)C1C(O)CC1C3(C)CCC(OC4OC(CO)C(O)C(O)C4O)C(C)(C)C3CCC21C

>  <Target>
EGFR inhibitor

>  <Weight>
10.2mg

$$$$
Lab-1.sdf
  ChemDraw05232018482D

 31 35  0  0  0  0  0  0  0  0999 V2000
   -1.8070    0.0000    0.0000 C   0  0  0  0  0  0  0  0  0  0  0  0
   -2.5954    0.0000    0.0000 C   0  0  0  0  0  0  0  0  0  0  0  0
   -3.2000    0.0000    0.0000 C   0  0  0  0  0  0  0  0  0  0  0  0
   -2.7791    0.0000    0.0000 C   0  0  0  0  0  0  0  0  0  0  0  0
   -3.5378    0.0000    0.0000 C   0  0  0  0  0  0  0  0  0  0  0  0
   -3.4641    0.0000    0.0000 C   0  0  0  0  0  0  0  0  0  0  0  0
   -2.6598    0.0000    0.0000 C   0  0  0  0  0  0  0  0  0  0  0  0
   -3.1548    0.0000    0.0000 C   0  0  0  0  0  0  0  0  0  0  0  0
   -2.2582    0.0000    0.0000 C   0  0  0  0  0  0  0  0  0  0  0  0
   -1.4333    0.0000    0.0000 C   0  0  0  0  0  0  0  0  0  0  0  0
   -1.0100    0.0000    0.0000 C   0  0  0  0  0  0  0  0  0  0  0  0
   -0.6084    0.0000    0.0000 C   0  0  0  0  0  0  0  0  0  0  0  0
   -1.4116    0.0000    0.0000 C   0  0  0  0  0  0  0  0  0  0  0  0
   -0.9883    0.0000    0.0000 C   0  0  0  0  0  0  0  0  0  0  0  0
   -0.1634    0.0000    0.0000 C   0  0  0  0  0  0  0  0  0  0  0  0
    0.2382    0.0000    0.0000 C   0  0  0  0  0  0  0  0  0  0  0  0
    1.0631    0.0000    0.0000 C   0  0  0  0  0  0  0  0  0  0  0  0
    0.6615    0.0000    0.0000 C   0  0  0  0  0  0  0  0  0  0  0  0
    1.4864    0.0000    0.0000 C   0  0  0  0  0  0  0  0  0  0  0  0
    2.3113    0.0000    0.0000 C   0  0  0  0  0  0  0  0  0  0  0  0
    2.7129    0.0000    0.0000 C   0  0  0  0  0  0  0  0  0  0  0  0
    3.5378    0.0000    0.0000 O   0  0  0  0  0  0  0  0  0  0  0  0
    2.2896    0.0000    0.0000 C   0  0  0  0  0  0  0  0  0  0  0  0
    3.0605    0.0000    0.0000 C   0  0  0  0  0  0  0  0  0  0  0  0
    2.1340    0.0000    0.0000 C   0  0  0  0  0  0  0  0  0  0  0  0
    1.4647    0.0000    0.0000 C   0  0  0  0  0  0  0  0  0  0  0  0
    1.0414    0.0000    0.0000 C   0  0  0  0  0  0  0  0  0  0  0  0
    0.2165    0.0000    0.0000 C   0  0  0  0  0  0  0  0  0  0  0  0
   -0.1851    0.0000    0.0000 C   0  0  0  0  0  0  0  0  0  0  0  0
   -0.1114    0.0000    0.0000 C   0  0  0  0  0  0  0  0  0  0  0  0
   -2.2365    0.0000    0.0000 C   0  0  0  0  0  0  0  0  0  0  0  0
  1  2  1  0      
  2  3  2  0      
  2  4  1  0      
  4  5  1  0      
  5  6  1  0      
  6  7  1  0      
  7  8  1  0      
  7  9  1  0      
  9 10  1  0      
 10 11  1  0      
 11 12  1  0      
 11 13  1  0      
 13 14  1  0      
 14 15  1  0      
 15 16  1  0      
 16 17  1  0      
 17 18  1  0      
 17 19  1  0      
 19 20  1  0      
 20 21  1  0      
 21 22  1  0      
 21 23  1  0      
 23 24  1  0      
 23 25  1  0      
 23 26  1  0      
 17 26  1  0      
 26 27  1  0      
 27 28  1  0      
 28 29  1  0      
 11 29  1  0      
 16 29  1  0      
 29 30  1  0      
 13 31  1  0      
  4 31  1  0      
  7 31  1  0      
M  END
>  <Bioactivity>
Lupeol is a pentacyclic triterpene that has anti-inflammatory and antioxidant activity. Murine skin studies report that Lupeol inhibits the cutaneous toxicity induced by benzoyl peroxide. Lupeol has b
een shown to regulate NF-¦ÊB and PI3K/Akt pathways,indu

>  <CAS>
545-47-1

>  <Col>
6

>  <Formula>
C30H50O

>  <ID>
T2895

>  <Index>
535

>  <MOLENAME>
Lupeol

>  <MolWt>
426.73

>  <Pathways>
PI3K/Akt/mTOR Signaling

>  <Plate>
PLATE 007

>  <QR code>
1151479488

>  <Receptor>
p-Akt

>  <Reference>
1. Liu Y, et al. Technol Y Res Treat. 2015 Oct 6. pii: 1533034615609014. 

>  <Row>
F

>  <SMILES>
CC(=C)C1CCC2(C)CCC3(C)C(CCC4C5(C)CCC(O)C(C)(C)C5CCC34C)C12

>  <Target>
Akt inhibitor

>  <Weight>
10.2mg

$$$$
Lab-1.sdf
  ChemDraw05232018482D

 59 64  0  0  0  0  0  0  0  0999 V2000
   -6.5374    0.0000    0.0000 N   0  0  0  0  0  0  0  0  0  0  0  0
    2.2692    0.0000    0.0000 C   0  0  0  0  0  0  0  0  0  0  0  0
    2.4125    0.0000    0.0000 C   0  0  0  0  0  0  0  0  0  0  0  0
    3.1877    0.0000    0.0000 C   0  0  0  0  0  0  0  0  0  0  0  0
    2.8250    0.0000    0.0000 C   0  0  0  0  0  0  0  0  0  0  0  0
    2.4125    0.0000    0.0000 C   0  0  0  0  0  0  0  0  0  0  0  0
    1.5875    0.0000    0.0000 C   0  0  0  0  0  0  0  0  0  0  0  0
    1.1750    0.0000    0.0000 C   0  0  0  0  0  0  0  0  0  0  0  0
    0.7625    0.0000    0.0000 C   0  0  0  0  0  0  0  0  0  0  0  0
    1.5875    0.0000    0.0000 C   0  0  0  0  0  0  0  0  0  0  0  0
    1.1750    0.0000    0.0000 C   0  0  0  0  0  0  0  0  0  0  0  0
    0.3500    0.0000    0.0000 C   0  0  0  0  0  0  0  0  0  0  0  0
   -0.0624    0.0000    0.0000 C   0  0  0  0  0  0  0  0  0  0  0  0
   -0.4749    0.0000    0.0000 C   0  0  0  0  0  0  0  0  0  0  0  0
    0.3500    0.0000    0.0000 C   0  0  0  0  0  0  0  0  0  0  0  0
   -0.0624    0.0000    0.0000 C   0  0  0  0  0  0  0  0  0  0  0  0
    0.3500    0.0000    0.0000 O   0  0  0  0  0  0  0  0  0  0  0  0
   -0.8874    0.0000    0.0000 C   0  0  0  0  0  0  0  0  0  0  0  0
   -1.2999    0.0000    0.0000 C   0  0  0  0  0  0  0  0  0  0  0  0
   -2.1249    0.0000    0.0000 C   0  0  0  0  0  0  0  0  0  0  0  0
   -2.5374    0.0000    0.0000 C   0  0  0  0  0  0  0  0  0  0  0  0
   -3.3624    0.0000    0.0000 C   0  0  0  0  0  0  0  0  0  0  0  0
   -3.2192    0.0000    0.0000 C   0  0  0  0  0  0  0  0  0  0  0  0
   -3.7748    0.0000    0.0000 C   0  0  0  0  0  0  0  0  0  0  0  0
   -3.3624    0.0000    0.0000 C   0  0  0  0  0  0  0  0  0  0  0  0
   -2.5374    0.0000    0.0000 C   0  0  0  0  0  0  0  0  0  0  0  0
   -2.9499    0.0000    0.0000 C   0  0  0  0  0  0  0  0  0  0  0  0
   -2.1249    0.0000    0.0000 C   0  0  0  0  0  0  0  0  0  0  0  0
   -1.2999    0.0000    0.0000 C   0  0  0  0  0  0  0  0  0  0  0  0
   -0.8874    0.0000    0.0000 C   0  0  0  0  0  0  0  0  0  0  0  0
   -0.9736    0.0000    0.0000 C   0  0  0  0  0  0  0  0  0  0  0  0
   -4.1376    0.0000    0.0000 C   0  0  0  0  0  0  0  0  0  0  0  0
   -4.2808    0.0000    0.0000 O   0  0  0  0  0  0  0  0  0  0  0  0
   -4.7695    0.0000    0.0000 O   0  0  0  0  0  0  0  0  0  0  0  0
    3.6500    0.0000    0.0000 O   0  0  0  0  0  0  0  0  0  0  0  0
    4.0624    0.0000    0.0000 C   0  0  0  0  0  0  0  0  0  0  0  0
    4.8874    0.0000    0.0000 O   0  0  0  0  0  0  0  0  0  0  0  0
    5.2999    0.0000    0.0000 C   0  0  0  0  0  0  0  0  0  0  0  0
    4.8874    0.0000    0.0000 C   0  0  0  0  0  0  0  0  0  0  0  0
    5.2999    0.0000    0.0000 O   0  0  0  0  0  0  0  0  0  0  0  0
    4.0624    0.0000    0.0000 C   0  0  0  0  0  0  0  0  0  0  0  0
    3.6500    0.0000    0.0000 O   0  0  0  0  0  0  0  0  0  0  0  0
    3.6500    0.0000    0.0000 C   0  0  0  0  0  0  0  0  0  0  0  0
    2.8250    0.0000    0.0000 O   0  0  0  0  0  0  0  0  0  0  0  0
    2.4125    0.0000    0.0000 C   0  0  0  0  0  0  0  0  0  0  0  0
    2.8250    0.0000    0.0000 O   0  0  0  0  0  0  0  0  0  0  0  0
    2.4125    0.0000    0.0000 C   0  0  0  0  0  0  0  0  0  0  0  0
    1.5875    0.0000    0.0000 C   0  0  0  0  0  0  0  0  0  0  0  0
    1.1750    0.0000    0.0000 O   0  0  0  0  0  0  0  0  0  0  0  0
    1.1750    0.0000    0.0000 C   0  0  0  0  0  0  0  0  0  0  0  0
    0.3500    0.0000    0.0000 O   0  0  0  0  0  0  0  0  0  0  0  0
    1.5875    0.0000    0.0000 C   0  0  0  0  0  0  0  0  0  0  0  0
    1.1750    0.0000    0.0000 O   0  0  0  0  0  0  0  0  0  0  0  0
    2.8250    0.0000    0.0000 C   0  0  0  0  0  0  0  0  0  0  0  0
    2.4125    0.0000    0.0000 O   0  0  0  0  0  0  0  0  0  0  0  0
    3.6500    0.0000    0.0000 O   0  0  0  0  0  0  0  0  0  0  0  0
    6.1249    0.0000    0.0000 C   0  0  0  0  0  0  0  0  0  0  0  0
    6.5374    0.0000    0.0000 O   0  0  0  0  0  0  0  0  0  0  0  0
    6.5374    0.0000    0.0000 O   0  0  0  0  0  0  0  0  0  0  0  0
  2  3  1  0      
  3  4  1  0      
  3  5  1  0      
  5  6  1  0      
  6  7  1  0      
  7  8  1  0      
  8  9  1  0      
  8 10  1  0      
  3 10  1  0      
 10 11  1  0      
 11 12  1  0      
 12 13  1  0      
 13 14  1  0      
 13 15  1  0      
  8 15  1  0      
 15 16  1  0      
 16 17  2  0      
 16 18  1  0      
 18 19  2  0      
 19 20  1  0      
 20 21  1  0      
 21 22  1  0      
 22 23  1  0      
 22 24  1  0      
 24 25  1  0      
 25 26  1  0      
 20 26  1  0      
 26 27  1  0      
 26 28  1  0      
 28 29  1  0      
 29 30  1  0      
 13 30  1  0      
 19 30  1  0      
 30 31  1  0      
 22 32  1  0      
 32 33  1  0      
 32 34  2  0      
  5 35  1  0      
 35 36  1  0      
 36 37  1  0      
 37 38  1  0      
 38 39  1  0      
 39 40  1  0      
 39 41  1  0      
 41 42  1  0      
 41 43  1  0      
 36 43  1  0      
 43 44  1  0      
 44 45  1  0      
 45 46  1  0      
 46 47  1  0      
 47 48  1  0      
 48 49  1  0      
 48 50  1  0      
 50 51  1  0      
 50 52  1  0      
 45 52  1  0      
 52 53  1  0      
 47 54  1  0      
 54 55  1  0      
 54 56  2  0      
 38 57  1  0      
 57 58  1  0      
 57 59  2  0      
M  END
>  <Bioactivity>
Extracted from Such sweet licorice root;Suitability:Acetic acid,dilute ethanol,ammonia;Store the product in sealed,cool and dry condition

>  <CAS>
53956-04-0

>  <Col>
7

>  <Formula>
C42H62O16?H3N

>  <ID>
T2891

>  <Index>
536

>  <MOLENAME>
Monoammonium glycyrrhizinate

>  <MolWt>
839.97

>  <Pathways>
Others

>  <Plate>
PLATE 007

>  <QR code>
1151479489

>  <Receptor>
Others

>  <Reference>
1. Shi JR, et al. Int Immunopharmacol. 2010 Oct;10(10):1235-41. 

>  <Row>
F

>  <SMILES>
N.CC1(C)C(CCC2(C)C1CCC1(C)C2C(=O)C=C2C3CC(C)(CCC3(C)CCC12C)C(O)=O)OC1OC(C(O)C(O)C1OC1OC(C(O)C(O)C1O)C(O)=O)C(O)=O

>  <Target>
Others

>  <Weight>
10.1mg

$$$$
Lab-1.sdf
  ChemDraw05232018482D

 30 35  0  0  0  0  0  0  0  0999 V2000
    1.0703    0.0000    0.0000 C   0  0  0  0  0  0  0  0  0  0  0  0
    1.5246    0.0000    0.0000 C   0  0  0  0  0  0  0  0  0  0  0  0
    2.3487    0.0000    0.0000 C   0  0  0  0  0  0  0  0  0  0  0  0
    2.9279    0.0000    0.0000 N   0  0  0  0  0  0  0  0  0  0  0  0
    3.7263    0.0000    0.0000 C   0  0  0  0  0  0  0  0  0  0  0  0
    3.9455    0.0000    0.0000 C   0  0  0  0  0  0  0  0  0  0  0  0
    4.7439    0.0000    0.0000 C   0  0  0  0  0  0  0  0  0  0  0  0
    3.3663    0.0000    0.0000 C   0  0  0  0  0  0  0  0  0  0  0  0
    2.5679    0.0000    0.0000 C   0  0  0  0  0  0  0  0  0  0  0  0
    1.8793    0.0000    0.0000 O   0  0  0  0  0  0  0  0  0  0  0  0
    1.2344    0.0000    0.0000 C   0  0  0  0  0  0  0  0  0  0  0  0
    1.0266    0.0000    0.0000 C   0  0  0  0  0  0  0  0  0  0  0  0
    0.2312    0.0000    0.0000 C   0  0  0  0  0  0  0  0  0  0  0  0
   -0.3563    0.0000    0.0000 C   0  0  0  0  0  0  0  0  0  0  0  0
   -1.1798    0.0000    0.0000 C   0  0  0  0  0  0  0  0  0  0  0  0
   -1.6944    0.0000    0.0000 C   0  0  0  0  0  0  0  0  0  0  0  0
   -2.5102    0.0000    0.0000 C   0  0  0  0  0  0  0  0  0  0  0  0
   -2.8113    0.0000    0.0000 C   0  0  0  0  0  0  0  0  0  0  0  0
   -3.6270    0.0000    0.0000 C   0  0  0  0  0  0  0  0  0  0  0  0
   -3.9282    0.0000    0.0000 C   0  0  0  0  0  0  0  0  0  0  0  0
   -4.7439    0.0000    0.0000 O   0  0  0  0  0  0  0  0  0  0  0  0
   -3.4136    0.0000    0.0000 C   0  0  0  0  0  0  0  0  0  0  0  0
   -2.5978    0.0000    0.0000 C   0  0  0  0  0  0  0  0  0  0  0  0
   -2.2967    0.0000    0.0000 C   0  0  0  0  0  0  0  0  0  0  0  0
   -1.7821    0.0000    0.0000 C   0  0  0  0  0  0  0  0  0  0  0  0
   -1.4809    0.0000    0.0000 C   0  0  0  0  0  0  0  0  0  0  0  0
   -0.8435    0.0000    0.0000 C   0  0  0  0  0  0  0  0  0  0  0  0
   -0.1484    0.0000    0.0000 C   0  0  0  0  0  0  0  0  0  0  0  0
    0.6469    0.0000    0.0000 C   0  0  0  0  0  0  0  0  0  0  0  0
    0.5979    0.0000    0.0000 C   0  0  0  0  0  0  0  0  0  0  0  0
  1  2  1  0      
  2  3  1  0      
  3  4  1  0      
  4  5  1  0      
  5  6  1  0      
  6  7  1  0      
  6  8  1  0      
  8  9  1  0      
  3  9  1  0      
  9 10  1  0      
 10 11  1  0      
  2 11  1  0      
 11 12  1  0      
 12 13  1  0      
 13 14  1  0      
 14 15  1  0      
 15 16  1  0      
 16 17  1  0      
 17 18  2  0      
 18 19  1  0      
 19 20  1  0      
 20 21  1  0      
 20 22  1  0      
 22 23  1  0      
 23 24  1  0      
 18 24  1  0      
 24 25  1  0      
 24 26  1  0      
 15 26  1  0      
 26 27  1  0      
 27 28  1  0      
 14 28  1  0      
 28 29  2  0      
 11 29  1  0      
 29 30  1  0      
M  END
>  <Bioactivity>
Cyclopamine is a naturally occurring chemical that belongs to the group of steroidal jerveratrum alkaloids. It is a teratogen isolated from the corn lily (Veratrum californicum) that causes usually fa
tal birth defects. It can prevent the fetal brain from dividing into two lobes (holoprosencephaly) and cause the development of a single eye (cyclopia).

>  <CAS>
4449-51-8

>  <Col>
8

>  <Formula>
C27H41NO2

>  <ID>
T2825

>  <Index>
537

>  <MOLENAME>
Cyclopamine

>  <MolWt>
411.63

>  <Pathways>
Neuroscience

>  <Plate>
PLATE 007

>  <QR code>
1151479490

>  <Receptor>
Beta Amyloid

>  <Reference>
1. Vorobyeva AG, et al. J Biol Chem. 2014 Nov 28;289(48):33258-74. 

>  <Row>
F

>  <SMILES>
CC1C2NCC(C)CC2OC11CCC2C3CC=C4CC(O)CCC4(C)C3CC2=C1C

>  <Target>
Beta Amyloid modulator

>  <Weight>
10.2mg

$$$$
Lab-1.sdf
  ChemDraw05232018482D

 73 80  0  0  0  0  0  0  0  0999 V2000
    5.9643    0.0000    0.0000 C   0  0  0  0  0  0  0  0  0  0  0  0
    5.6840    0.0000    0.0000 C   0  0  0  0  0  0  0  0  0  0  0  0
    4.8719    0.0000    0.0000 O   0  0  0  0  0  0  0  0  0  0  0  0
    4.5916    0.0000    0.0000 C   0  0  0  0  0  0  0  0  0  0  0  0
    3.7794    0.0000    0.0000 O   0  0  0  0  0  0  0  0  0  0  0  0
    3.4991    0.0000    0.0000 C   0  0  0  0  0  0  0  0  0  0  0  0
    2.6870    0.0000    0.0000 C   0  0  0  0  0  0  0  0  0  0  0  0
    2.1551    0.0000    0.0000 O   0  0  0  0  0  0  0  0  0  0  0  0
    1.3430    0.0000    0.0000 C   0  0  0  0  0  0  0  0  0  0  0  0
    1.0627    0.0000    0.0000 C   0  0  0  0  0  0  0  0  0  0  0  0
    0.2506    0.0000    0.0000 C   0  0  0  0  0  0  0  0  0  0  0  0
   -0.2813    0.0000    0.0000 C   0  0  0  0  0  0  0  0  0  0  0  0
   -0.5616    0.0000    0.0000 C   0  0  0  0  0  0  0  0  0  0  0  0
   -0.0298    0.0000    0.0000 O   0  0  0  0  0  0  0  0  0  0  0  0
   -0.0009    0.0000    0.0000 C   0  0  0  0  0  0  0  0  0  0  0  0
   -0.5328    0.0000    0.0000 C   0  0  0  0  0  0  0  0  0  0  0  0
   -1.3449    0.0000    0.0000 C   0  0  0  0  0  0  0  0  0  0  0  0
   -1.6252    0.0000    0.0000 C   0  0  0  0  0  0  0  0  0  0  0  0
   -2.1571    0.0000    0.0000 C   0  0  0  0  0  0  0  0  0  0  0  0
   -1.0934    0.0000    0.0000 C   0  0  0  0  0  0  0  0  0  0  0  0
   -1.3737    0.0000    0.0000 C   0  0  0  0  0  0  0  0  0  0  0  0
   -2.1858    0.0000    0.0000 C   0  0  0  0  0  0  0  0  0  0  0  0
   -2.7177    0.0000    0.0000 C   0  0  0  0  0  0  0  0  0  0  0  0
   -3.5422    0.0000    0.0000 C   0  0  0  0  0  0  0  0  0  0  0  0
   -3.7715    0.0000    0.0000 C   0  0  0  0  0  0  0  0  0  0  0  0
   -3.0887    0.0000    0.0000 C   0  0  0  0  0  0  0  0  0  0  0  0
   -2.4374    0.0000    0.0000 C   0  0  0  0  0  0  0  0  0  0  0  0
   -2.4969    0.0000    0.0000 C   0  0  0  0  0  0  0  0  0  0  0  0
   -4.0486    0.0000    0.0000 C   0  0  0  0  0  0  0  0  0  0  0  0
   -3.3973    0.0000    0.0000 O   0  0  0  0  0  0  0  0  0  0  0  0
   -4.7000    0.0000    0.0000 C   0  0  0  0  0  0  0  0  0  0  0  0
   -5.4642    0.0000    0.0000 C   0  0  0  0  0  0  0  0  0  0  0  0
   -6.1155    0.0000    0.0000 C   0  0  0  0  0  0  0  0  0  0  0  0
   -6.8797    0.0000    0.0000 C   0  0  0  0  0  0  0  0  0  0  0  0
   -7.5310    0.0000    0.0000 C   0  0  0  0  0  0  0  0  0  0  0  0
   -6.9926    0.0000    0.0000 C   0  0  0  0  0  0  0  0  0  0  0  0
   -4.5550    0.0000    0.0000 C   0  0  0  0  0  0  0  0  0  0  0  0
   -4.2440    0.0000    0.0000 O   0  0  0  0  0  0  0  0  0  0  0  0
   -4.7505    0.0000    0.0000 C   0  0  0  0  0  0  0  0  0  0  0  0
   -5.5677    0.0000    0.0000 O   0  0  0  0  0  0  0  0  0  0  0  0
   -6.0741    0.0000    0.0000 C   0  0  0  0  0  0  0  0  0  0  0  0
   -6.8913    0.0000    0.0000 C   0  0  0  0  0  0  0  0  0  0  0  0
   -7.3977    0.0000    0.0000 O   0  0  0  0  0  0  0  0  0  0  0  0
   -5.7632    0.0000    0.0000 C   0  0  0  0  0  0  0  0  0  0  0  0
   -6.2696    0.0000    0.0000 O   0  0  0  0  0  0  0  0  0  0  0  0
   -4.9460    0.0000    0.0000 C   0  0  0  0  0  0  0  0  0  0  0  0
   -4.6351    0.0000    0.0000 O   0  0  0  0  0  0  0  0  0  0  0  0
   -4.4396    0.0000    0.0000 C   0  0  0  0  0  0  0  0  0  0  0  0
   -3.6223    0.0000    0.0000 O   0  0  0  0  0  0  0  0  0  0  0  0
    0.8112    0.0000    0.0000 C   0  0  0  0  0  0  0  0  0  0  0  0
    0.6944    0.0000    0.0000 C   0  0  0  0  0  0  0  0  0  0  0  0
    1.4230    0.0000    0.0000 C   0  0  0  0  0  0  0  0  0  0  0  0
    2.4067    0.0000    0.0000 O   0  0  0  0  0  0  0  0  0  0  0  0
    2.9385    0.0000    0.0000 C   0  0  0  0  0  0  0  0  0  0  0  0
    3.7506    0.0000    0.0000 C   0  0  0  0  0  0  0  0  0  0  0  0
    4.2824    0.0000    0.0000 O   0  0  0  0  0  0  0  0  0  0  0  0
    4.0309    0.0000    0.0000 C   0  0  0  0  0  0  0  0  0  0  0  0
    4.8431    0.0000    0.0000 O   0  0  0  0  0  0  0  0  0  0  0  0
    5.3749    0.0000    0.0000 C   0  0  0  0  0  0  0  0  0  0  0  0
    5.0946    0.0000    0.0000 O   0  0  0  0  0  0  0  0  0  0  0  0
    5.6265    0.0000    0.0000 C   0  0  0  0  0  0  0  0  0  0  0  0
    6.4386    0.0000    0.0000 C   0  0  0  0  0  0  0  0  0  0  0  0
    6.9704    0.0000    0.0000 O   0  0  0  0  0  0  0  0  0  0  0  0
    6.7189    0.0000    0.0000 C   0  0  0  0  0  0  0  0  0  0  0  0
    7.5310    0.0000    0.0000 O   0  0  0  0  0  0  0  0  0  0  0  0
    6.1871    0.0000    0.0000 C   0  0  0  0  0  0  0  0  0  0  0  0
    6.4674    0.0000    0.0000 O   0  0  0  0  0  0  0  0  0  0  0  0
    5.1234    0.0000    0.0000 C   0  0  0  0  0  0  0  0  0  0  0  0
    5.3527    0.0000    0.0000 O   0  0  0  0  0  0  0  0  0  0  0  0
    5.9355    0.0000    0.0000 C   0  0  0  0  0  0  0  0  0  0  0  0
    6.7365    0.0000    0.0000 O   0  0  0  0  0  0  0  0  0  0  0  0
    6.2158    0.0000    0.0000 C   0  0  0  0  0  0  0  0  0  0  0  0
    7.0280    0.0000    0.0000 O   0  0  0  0  0  0  0  0  0  0  0  0
  1  2  1  0      
  2  3  1  0      
  3  4  1  0      
  4  5  1  0      
  5  6  1  0      
  6  7  1  0      
  7  8  1  0      
  8  9  1  0      
  9 10  1  0      
 10 11  1  0      
 11 12  1  0      
 12 13  1  0      
 13 14  2  0      
 12 15  1  0      
 15 16  1  0      
 16 17  1  0      
 17 18  1  0      
 18 19  1  0      
 18 20  1  0      
 12 20  1  0      
 20 21  1  0      
 21 22  1  0      
 22 23  1  0      
 23 24  1  0      
 24 25  1  0      
 25 26  1  0      
 26 27  1  0      
 18 27  1  0      
 23 27  1  0      
 27 28  1  0      
 24 29  1  0      
 29 30  1  0      
 29 31  1  0      
 31 32  1  0      
 32 33  1  0      
 33 34  2  0      
 34 35  1  0      
 34 36  1  0      
 29 37  1  0      
 37 38  1  0      
 38 39  1  0      
 39 40  1  0      
 40 41  1  0      
 41 42  1  0      
 42 43  1  0      
 41 44  1  0      
 44 45  1  0      
 44 46  1  0      
 46 47  1  0      
 46 48  1  0      
 39 48  1  0      
 48 49  1  0      
 15 50  1  0      
  9 50  1  0      
 50 51  1  0      
 50 52  1  0      
  7 53  1  0      
 53 54  1  0      
 54 55  1  0      
 55 56  1  0      
 55 57  1  0      
  6 57  1  0      
 57 58  1  0      
 58 59  1  0      
 59 60  1  0      
 60 61  1  0      
 61 62  1  0      
 62 63  1  0      
 62 64  1  0      
 64 65  1  0      
 64 66  1  0      
 59 66  1  0      
 66 67  1  0      
  4 68  1  0      
 68 69  1  0      
 68 70  1  0      
 70 71  1  0      
 70 72  1  0      
  2 72  1  0      
 72 73  1  0      
M  END
>  <Bioactivity>
Extracted from whole herb of Gynostemsma pentaphyllum(Thunb.)Mak.;Store the product in sealed, cool and dry condition

>  <CAS>
94987-08-3

>  <Col>
9

>  <Formula>
C52H86O21

>  <ID>
T2985

>  <Index>
538

>  <MOLENAME>
Gypenoside XLIX

>  <MolWt>
1047.23

>  <Pathways>
Metabolism

>  <Plate>
PLATE 007

>  <QR code>
1151479491

>  <Receptor>
PPAR-alpha

>  <Reference>
1. Huang TH, et al. Eur J Pharmacol. 2007 Jun 22;565(1-3):158-65. 

>  <Row>
F

>  <SMILES>
CC1OC(OC2C(OC3CCC4(C=O)C(CCC5(C)C4CCC4C(CCC54C)C(O)(CCC=C(C)C)COC4OC(CO)C(O)C(O)C4O)C3(C)C)OCC(O)C2OC2OCC(O)C(O)C2O)C(O)C(O)C1O

>  <Target>
PPAR activator

>  <Weight>
10.3mg

$$$$
Lab-1.sdf
  ChemDraw05232018482D

 32 35  0  0  0  0  0  0  0  0999 V2000
   -2.5006    0.0000    0.0000 C   0  0  0  0  0  0  0  0  0  0  0  0
   -2.5006    0.0000    0.0000 O   0  0  0  0  0  0  0  0  0  0  0  0
   -1.7861    0.0000    0.0000 C   0  0  0  0  0  0  0  0  0  0  0  0
   -1.7861    0.0000    0.0000 C   0  0  0  0  0  0  0  0  0  0  0  0
   -2.5006    0.0000    0.0000 O   0  0  0  0  0  0  0  0  0  0  0  0
   -2.5006    0.0000    0.0000 C   0  0  0  0  0  0  0  0  0  0  0  0
   -3.2151    0.0000    0.0000 O   0  0  0  0  0  0  0  0  0  0  0  0
   -3.2151    0.0000    0.0000 C   0  0  0  0  0  0  0  0  0  0  0  0
   -3.9295    0.0000    0.0000 C   0  0  0  0  0  0  0  0  0  0  0  0
   -3.9295    0.0000    0.0000 O   0  0  0  0  0  0  0  0  0  0  0  0
   -2.5006    0.0000    0.0000 C   0  0  0  0  0  0  0  0  0  0  0  0
   -2.5006    0.0000    0.0000 O   0  0  0  0  0  0  0  0  0  0  0  0
   -1.7861    0.0000    0.0000 C   0  0  0  0  0  0  0  0  0  0  0  0
   -1.0717    0.0000    0.0000 O   0  0  0  0  0  0  0  0  0  0  0  0
   -1.7861    0.0000    0.0000 C   0  0  0  0  0  0  0  0  0  0  0  0
   -1.0717    0.0000    0.0000 O   0  0  0  0  0  0  0  0  0  0  0  0
   -1.0717    0.0000    0.0000 C   0  0  0  0  0  0  0  0  0  0  0  0
   -0.3572    0.0000    0.0000 C   0  0  0  0  0  0  0  0  0  0  0  0
    0.3572    0.0000    0.0000 O   0  0  0  0  0  0  0  0  0  0  0  0
    1.0717    0.0000    0.0000 C   0  0  0  0  0  0  0  0  0  0  0  0
    1.0717    0.0000    0.0000 C   0  0  0  0  0  0  0  0  0  0  0  0
    0.3572    0.0000    0.0000 C   0  0  0  0  0  0  0  0  0  0  0  0
    0.3572    0.0000    0.0000 O   0  0  0  0  0  0  0  0  0  0  0  0
   -0.3572    0.0000    0.0000 C   0  0  0  0  0  0  0  0  0  0  0  0
   -1.0717    0.0000    0.0000 C   0  0  0  0  0  0  0  0  0  0  0  0
    1.7861    0.0000    0.0000 C   0  0  0  0  0  0  0  0  0  0  0  0
    2.5006    0.0000    0.0000 C   0  0  0  0  0  0  0  0  0  0  0  0
    3.2151    0.0000    0.0000 C   0  0  0  0  0  0  0  0  0  0  0  0
    3.2151    0.0000    0.0000 C   0  0  0  0  0  0  0  0  0  0  0  0
    3.9295    0.0000    0.0000 O   0  0  0  0  0  0  0  0  0  0  0  0
    2.5006    0.0000    0.0000 C   0  0  0  0  0  0  0  0  0  0  0  0
    1.7861    0.0000    0.0000 C   0  0  0  0  0  0  0  0  0  0  0  0
  1  2  1  0      
  2  3  1  0      
  3  4  2  0      
  4  5  1  0      
  5  6  1  0      
  6  7  1  0      
  7  8  1  0      
  8  9  1  0      
  9 10  1  0      
  8 11  1  0      
 11 12  1  0      
 11 13  1  0      
 13 14  1  0      
 13 15  1  0      
  6 15  1  0      
 15 16  1  0      
  4 17  1  0      
 17 18  2  0      
 18 19  1  0      
 19 20  1  0      
 20 21  2  0      
 21 22  1  0      
 22 23  2  0      
 22 24  1  0      
 18 24  1  0      
 24 25  2  0      
  3 25  1  0      
 21 26  1  0      
 26 27  2  0      
 27 28  1  0      
 28 29  2  0      
 29 30  1  0      
 29 31  1  0      
 31 32  2  0      
 26 32  1  0      
M  END
>  <Bioactivity>
Glycitin is a natural isoflavone isolated from legumes; promotes the proliferation of bone marrow stromal cells and osteoblasts and suppresses bone turnover.

>  <CAS>
40246-10-4

>  <Col>
10

>  <Formula>
C22H22O10

>  <ID>
T2820

>  <Index>
539

>  <MOLENAME>
Glycitin

>  <MolWt>
446.41

>  <Pathways>
Others

>  <Plate>
PLATE 007

>  <QR code>
1151479492

>  <Receptor>
Others

>  <Reference>
1. Zang Y, Igarashi K, Yu C. Biosci Biotechnol Biochem. 2015;79(1):117-23. 

>  <Row>
F

>  <SMILES>
COC1=C(OC2OC(CO)C(O)C(O)C2O)C=C2OC=C(C(=O)C2=C1)C1=CC=C(O)C=C1

>  <Target>
Others

>  <Weight>
10.3mg

$$$$
Lab-1.sdf
  ChemDraw05232018482D

 68 71  0  0  0  0  0  0  0  0999 V2000
   -1.7861    0.0000    0.0000 C   0  0  0  0  0  0  0  0  0  0  0  0
   -1.0717    0.0000    0.0000 C   0  0  0  0  0  0  0  0  0  0  0  0
   -1.0717    0.0000    0.0000 C   0  0  0  0  0  0  0  0  0  0  0  0
   -1.7861    0.0000    0.0000 C   0  0  0  0  0  0  0  0  0  0  0  0
   -1.7861    0.0000    0.0000 C   0  0  0  0  0  0  0  0  0  0  0  0
   -2.5006    0.0000    0.0000 C   0  0  0  0  0  0  0  0  0  0  0  0
   -3.2151    0.0000    0.0000 C   0  0  0  0  0  0  0  0  0  0  0  0
   -2.5006    0.0000    0.0000 C   0  0  0  0  0  0  0  0  0  0  0  0
   -1.7861    0.0000    0.0000 O   0  0  0  0  0  0  0  0  0  0  0  0
   -3.2151    0.0000    0.0000 O   0  0  0  0  0  0  0  0  0  0  0  0
   -3.2151    0.0000    0.0000 C   0  0  0  0  0  0  0  0  0  0  0  0
   -2.5006    0.0000    0.0000 O   0  0  0  0  0  0  0  0  0  0  0  0
   -2.5006    0.0000    0.0000 C   0  0  0  0  0  0  0  0  0  0  0  0
   -1.7861    0.0000    0.0000 C   0  0  0  0  0  0  0  0  0  0  0  0
   -1.7861    0.0000    0.0000 O   0  0  0  0  0  0  0  0  0  0  0  0
   -1.0717    0.0000    0.0000 C   0  0  0  0  0  0  0  0  0  0  0  0
   -1.0717    0.0000    0.0000 O   0  0  0  0  0  0  0  0  0  0  0  0
   -0.3573    0.0000    0.0000 C   0  0  0  0  0  0  0  0  0  0  0  0
   -0.3573    0.0000    0.0000 C   0  0  0  0  0  0  0  0  0  0  0  0
    0.3573    0.0000    0.0000 O   0  0  0  0  0  0  0  0  0  0  0  0
    0.3573    0.0000    0.0000 C   0  0  0  0  0  0  0  0  0  0  0  0
    1.0716    0.0000    0.0000 O   0  0  0  0  0  0  0  0  0  0  0  0
    0.3573    0.0000    0.0000 C   0  0  0  0  0  0  0  0  0  0  0  0
    1.0716    0.0000    0.0000 O   0  0  0  0  0  0  0  0  0  0  0  0
   -0.3573    0.0000    0.0000 C   0  0  0  0  0  0  0  0  0  0  0  0
   -0.3573    0.0000    0.0000 O   0  0  0  0  0  0  0  0  0  0  0  0
   -3.2151    0.0000    0.0000 C   0  0  0  0  0  0  0  0  0  0  0  0
   -3.2151    0.0000    0.0000 O   0  0  0  0  0  0  0  0  0  0  0  0
   -3.9296    0.0000    0.0000 C   0  0  0  0  0  0  0  0  0  0  0  0
   -4.6440    0.0000    0.0000 O   0  0  0  0  0  0  0  0  0  0  0  0
   -3.9296    0.0000    0.0000 C   0  0  0  0  0  0  0  0  0  0  0  0
   -4.6440    0.0000    0.0000 O   0  0  0  0  0  0  0  0  0  0  0  0
   -0.3573    0.0000    0.0000 C   0  0  0  0  0  0  0  0  0  0  0  0
   -0.3573    0.0000    0.0000 C   0  0  0  0  0  0  0  0  0  0  0  0
    0.3573    0.0000    0.0000 C   0  0  0  0  0  0  0  0  0  0  0  0
    0.3573    0.0000    0.0000 C   0  0  0  0  0  0  0  0  0  0  0  0
    1.0716    0.0000    0.0000 C   0  0  0  0  0  0  0  0  0  0  0  0
    1.7861    0.0000    0.0000 C   0  0  0  0  0  0  0  0  0  0  0  0
    1.0716    0.0000    0.0000 C   0  0  0  0  0  0  0  0  0  0  0  0
    1.7861    0.0000    0.0000 C   0  0  0  0  0  0  0  0  0  0  0  0
    1.7861    0.0000    0.0000 C   0  0  0  0  0  0  0  0  0  0  0  0
    2.5006    0.0000    0.0000 C   0  0  0  0  0  0  0  0  0  0  0  0
    3.2150    0.0000    0.0000 C   0  0  0  0  0  0  0  0  0  0  0  0
    2.5006    0.0000    0.0000 C   0  0  0  0  0  0  0  0  0  0  0  0
    1.7861    0.0000    0.0000 O   0  0  0  0  0  0  0  0  0  0  0  0
    3.2150    0.0000    0.0000 O   0  0  0  0  0  0  0  0  0  0  0  0
    3.2150    0.0000    0.0000 C   0  0  0  0  0  0  0  0  0  0  0  0
    2.5006    0.0000    0.0000 O   0  0  0  0  0  0  0  0  0  0  0  0
    2.5006    0.0000    0.0000 C   0  0  0  0  0  0  0  0  0  0  0  0
    1.7861    0.0000    0.0000 C   0  0  0  0  0  0  0  0  0  0  0  0
    1.7861    0.0000    0.0000 O   0  0  0  0  0  0  0  0  0  0  0  0
    1.0716    0.0000    0.0000 C   0  0  0  0  0  0  0  0  0  0  0  0
    0.3573    0.0000    0.0000 O   0  0  0  0  0  0  0  0  0  0  0  0
   -0.3573    0.0000    0.0000 C   0  0  0  0  0  0  0  0  0  0  0  0
   -1.0717    0.0000    0.0000 C   0  0  0  0  0  0  0  0  0  0  0  0
   -1.7861    0.0000    0.0000 O   0  0  0  0  0  0  0  0  0  0  0  0
   -0.3573    0.0000    0.0000 C   0  0  0  0  0  0  0  0  0  0  0  0
   -1.0717    0.0000    0.0000 O   0  0  0  0  0  0  0  0  0  0  0  0
    0.3573    0.0000    0.0000 C   0  0  0  0  0  0  0  0  0  0  0  0
    0.3573    0.0000    0.0000 O   0  0  0  0  0  0  0  0  0  0  0  0
    1.0716    0.0000    0.0000 C   0  0  0  0  0  0  0  0  0  0  0  0
    1.7861    0.0000    0.0000 O   0  0  0  0  0  0  0  0  0  0  0  0
    3.2150    0.0000    0.0000 C   0  0  0  0  0  0  0  0  0  0  0  0
    3.2150    0.0000    0.0000 O   0  0  0  0  0  0  0  0  0  0  0  0
    3.9295    0.0000    0.0000 C   0  0  0  0  0  0  0  0  0  0  0  0
    4.6440    0.0000    0.0000 O   0  0  0  0  0  0  0  0  0  0  0  0
    3.9295    0.0000    0.0000 C   0  0  0  0  0  0  0  0  0  0  0  0
    4.6440    0.0000    0.0000 O   0  0  0  0  0  0  0  0  0  0  0  0
  1  2  1  0      
  3  2  1  4      
  3  4  2  0      
  5  4  1  4      
  5  6  2  0      
  6  7  1  0      
  6  8  1  0      
  8  9  2  0      
  8 10  1  0      
 10 11  1  0      
 11 12  1  0      
 12 13  1  0      
 13 14  1  0      
 14 15  1  0      
 15 16  1  0      
 16 17  1  0      
 17 18  1  0      
 18 19  1  0      
 19 20  1  0      
 18 21  1  0      
 21 22  1  0      
 21 23  1  0      
 23 24  1  0      
 23 25  1  0      
 16 25  1  0      
 25 26  1  0      
 13 27  1  0      
 27 28  1  0      
 27 29  1  0      
 29 30  1  0      
 29 31  1  0      
 11 31  1  0      
 31 32  1  0      
  2 33  2  0      
 33 34  1  4      
 34 35  2  0      
 35 36  1  4      
 36 37  2  0      
 37 38  1  4      
 39 37  1  4      
 39 40  2  0      
 41 40  1  4      
 41 42  2  0      
 42 43  1  0      
 42 44  1  0      
 44 45  2  0      
 44 46  1  0      
 46 47  1  0      
 47 48  1  0      
 48 49  1  0      
 49 50  1  0      
 50 51  1  0      
 51 52  1  0      
 52 53  1  0      
 53 54  1  0      
 54 55  1  0      
 55 56  1  0      
 54 57  1  0      
 57 58  1  0      
 57 59  1  0      
 59 60  1  0      
 59 61  1  0      
 52 61  1  0      
 61 62  1  0      
 49 63  1  0      
 63 64  1  0      
 63 65  1  0      
 65 66  1  0      
 65 67  1  0      
 47 67  1  0      
 67 68  1  0      
M  END
>  <Bioactivity>
General descriptionA highly unsaturared diterpene dicarboxylic acid ester found in saffron. Actions Crocin alleviates some ethanol-induced impairments of learning and prevents ethanol-induced inhibiti
on of hippocampal long-term potentiation (LTP),a form o

>  <CAS>
42553-65-1

>  <Col>
11

>  <Formula>
C44H64O24

>  <ID>
T2823

>  <Index>
540

>  <MOLENAME>
Crocin

>  <MolWt>
976.96

>  <Pathways>
Others

>  <Plate>
PLATE 007

>  <QR code>
1151479493

>  <Receptor>
Others

>  <Reference>
1. Sapanidou V, et al. Theriogenology. 2015 Nov;84(8):1273-82.

>  <Row>
F

>  <SMILES>
CC(C=CC=C(C)C(=O)OC1OC(COC2OC(CO)C(O)C(O)C2O)C(O)C(O)C1O)=CC=CC=C(C)C=CC=C(C)C(=O)OC1OC(COC2OC(CO)C(O)C(O)C2O)C(O)C(O)C1O

>  <Target>
Others

>  <Weight>
10.4mg

$$$$
Lab-1.sdf
  ChemDraw05232018482D

 23 25  0  0  0  0  0  0  0  0999 V2000
    2.1577    0.0000    0.0000 C   0  0  0  0  0  0  0  0  0  0  0  0
    1.5187    0.0000    0.0000 C   0  0  0  0  0  0  0  0  0  0  0  0
    0.7473    0.0000    0.0000 C   0  0  0  0  0  0  0  0  0  0  0  0
    0.6148    0.0000    0.0000 O   0  0  0  0  0  0  0  0  0  0  0  0
    0.1082    0.0000    0.0000 O   0  0  0  0  0  0  0  0  0  0  0  0
   -0.6632    0.0000    0.0000 C   0  0  0  0  0  0  0  0  0  0  0  0
   -1.1154    0.0000    0.0000 C   0  0  0  0  0  0  0  0  0  0  0  0
   -1.9114    0.0000    0.0000 C   0  0  0  0  0  0  0  0  0  0  0  0
   -1.9512    0.0000    0.0000 N   0  0  0  0  0  0  0  0  0  0  0  0
   -2.4677    0.0000    0.0000 C   0  0  0  0  0  0  0  0  0  0  0  0
   -2.0155    0.0000    0.0000 C   0  0  0  0  0  0  0  0  0  0  0  0
   -1.1698    0.0000    0.0000 C   0  0  0  0  0  0  0  0  0  0  0  0
   -0.3403    0.0000    0.0000 C   0  0  0  0  0  0  0  0  0  0  0  0
    0.0374    0.0000    0.0000 O   0  0  0  0  0  0  0  0  0  0  0  0
    0.8517    0.0000    0.0000 C   0  0  0  0  0  0  0  0  0  0  0  0
    1.4375    0.0000    0.0000 O   0  0  0  0  0  0  0  0  0  0  0  0
    0.9774    0.0000    0.0000 C   0  0  0  0  0  0  0  0  0  0  0  0
    1.4860    0.0000    0.0000 C   0  0  0  0  0  0  0  0  0  0  0  0
    1.7991    0.0000    0.0000 O   0  0  0  0  0  0  0  0  0  0  0  0
    1.6511    0.0000    0.0000 C   0  0  0  0  0  0  0  0  0  0  0  0
    2.2114    0.0000    0.0000 C   0  0  0  0  0  0  0  0  0  0  0  0
    2.4677    0.0000    0.0000 O   0  0  0  0  0  0  0  0  0  0  0  0
   -1.3022    0.0000    0.0000 C   0  0  0  0  0  0  0  0  0  0  0  0
  1  2  1  0      
  2  3  1  0      
  3  4  2  0      
  3  5  1  0      
  5  6  1  0      
  6  7  1  0      
  7  8  1  0      
  8  9  1  0      
  9 10  1  0      
 10 11  1  0      
 11 12  2  0      
 12 13  1  0      
 13 14  1  0      
 14 15  1  0      
 15 16  2  0      
 15 17  1  0      
 17 18  1  0      
 17 19  1  0      
 17 20  1  0      
  2 20  1  0      
 20 21  1  0      
 20 22  1  0      
 12 23  1  0      
  6 23  1  0      
  9 23  1  0      
M  END
>  <Bioactivity>
Extracted from Legume Crotalaria assamica;Suitability:Methanol,ethanol,chloroform;Store the product in sealed,cool and dry condition

>  <CAS>
315-22-0

>  <Col>
2

>  <Formula>
C16H23NO6

>  <ID>
T2803

>  <Index>
541

>  <MOLENAME>
Monocrotaline

>  <MolWt>
325.36

>  <Pathways>
Immunology/Inflammation

>  <Plate>
PLATE 007

>  <QR code>
1151479481

>  <Receptor>
TGF-beta

>  <Reference>
1. Ahmed LA, et al. Eur J Pharmacol. 2014 Oct 5;740:379-87.

>  <Row>
G

>  <SMILES>
CC1C(=O)OC2CCN3CC=C(COC(=O)C(C)(O)C1(C)O)C23

>  <Target>
TGF-beta/Smad inhibitor

>  <Weight>
10.2mg

$$$$
Lab-1.sdf
  ChemDraw05232018482D

 41 45  0  0  0  0  0  0  0  0999 V2000
   -0.3573    0.0000    0.0000 C   0  0  0  0  0  0  0  0  0  0  0  0
   -1.0716    0.0000    0.0000 C   0  0  0  0  0  0  0  0  0  0  0  0
   -1.7861    0.0000    0.0000 O   0  0  0  0  0  0  0  0  0  0  0  0
   -2.5006    0.0000    0.0000 C   0  0  0  0  0  0  0  0  0  0  0  0
   -3.2150    0.0000    0.0000 O   0  0  0  0  0  0  0  0  0  0  0  0
   -3.2150    0.0000    0.0000 C   0  0  0  0  0  0  0  0  0  0  0  0
   -3.9295    0.0000    0.0000 C   0  0  0  0  0  0  0  0  0  0  0  0
   -4.6440    0.0000    0.0000 O   0  0  0  0  0  0  0  0  0  0  0  0
   -3.9295    0.0000    0.0000 C   0  0  0  0  0  0  0  0  0  0  0  0
   -4.6440    0.0000    0.0000 O   0  0  0  0  0  0  0  0  0  0  0  0
   -3.2150    0.0000    0.0000 C   0  0  0  0  0  0  0  0  0  0  0  0
   -3.2150    0.0000    0.0000 C   0  0  0  0  0  0  0  0  0  0  0  0
   -2.5006    0.0000    0.0000 O   0  0  0  0  0  0  0  0  0  0  0  0
   -2.5006    0.0000    0.0000 O   0  0  0  0  0  0  0  0  0  0  0  0
   -2.5006    0.0000    0.0000 C   0  0  0  0  0  0  0  0  0  0  0  0
   -1.7861    0.0000    0.0000 O   0  0  0  0  0  0  0  0  0  0  0  0
   -1.0716    0.0000    0.0000 C   0  0  0  0  0  0  0  0  0  0  0  0
   -1.0716    0.0000    0.0000 C   0  0  0  0  0  0  0  0  0  0  0  0
   -0.3573    0.0000    0.0000 C   0  0  0  0  0  0  0  0  0  0  0  0
   -0.3573    0.0000    0.0000 O   0  0  0  0  0  0  0  0  0  0  0  0
    0.3573    0.0000    0.0000 C   0  0  0  0  0  0  0  0  0  0  0  0
    1.0717    0.0000    0.0000 C   0  0  0  0  0  0  0  0  0  0  0  0
    1.0717    0.0000    0.0000 O   0  0  0  0  0  0  0  0  0  0  0  0
    1.7862    0.0000    0.0000 C   0  0  0  0  0  0  0  0  0  0  0  0
    1.7862    0.0000    0.0000 C   0  0  0  0  0  0  0  0  0  0  0  0
    1.0717    0.0000    0.0000 O   0  0  0  0  0  0  0  0  0  0  0  0
    0.3573    0.0000    0.0000 C   0  0  0  0  0  0  0  0  0  0  0  0
   -0.3573    0.0000    0.0000 C   0  0  0  0  0  0  0  0  0  0  0  0
    2.5006    0.0000    0.0000 C   0  0  0  0  0  0  0  0  0  0  0  0
    3.2151    0.0000    0.0000 C   0  0  0  0  0  0  0  0  0  0  0  0
    3.9296    0.0000    0.0000 C   0  0  0  0  0  0  0  0  0  0  0  0
    3.9296    0.0000    0.0000 C   0  0  0  0  0  0  0  0  0  0  0  0
    4.6440    0.0000    0.0000 O   0  0  0  0  0  0  0  0  0  0  0  0
    3.2151    0.0000    0.0000 C   0  0  0  0  0  0  0  0  0  0  0  0
    2.5006    0.0000    0.0000 C   0  0  0  0  0  0  0  0  0  0  0  0
   -2.5006    0.0000    0.0000 C   0  0  0  0  0  0  0  0  0  0  0  0
   -3.2150    0.0000    0.0000 O   0  0  0  0  0  0  0  0  0  0  0  0
   -1.7861    0.0000    0.0000 C   0  0  0  0  0  0  0  0  0  0  0  0
   -1.7861    0.0000    0.0000 O   0  0  0  0  0  0  0  0  0  0  0  0
   -1.0716    0.0000    0.0000 C   0  0  0  0  0  0  0  0  0  0  0  0
   -0.3573    0.0000    0.0000 O   0  0  0  0  0  0  0  0  0  0  0  0
  1  2  1  0      
  2  3  1  0      
  3  4  1  0      
  4  5  1  0      
  5  6  1  0      
  6  7  1  0      
  7  8  1  0      
  7  9  1  0      
  9 10  1  0      
  9 11  1  0      
 11 12  1  0      
 12 13  1  0      
 11 14  1  0      
 14 15  1  0      
  6 15  1  0      
 15 16  1  0      
 16 17  1  0      
 17 18  2  0      
 18 19  1  0      
 19 20  1  0      
 19 21  2  0      
 21 22  1  0      
 22 23  2  0      
 22 24  1  0      
 24 25  2  0      
 25 26  1  0      
 26 27  1  0      
 21 27  1  0      
 27 28  2  0      
 17 28  1  0      
 25 29  1  0      
 29 30  2  0      
 30 31  1  0      
 31 32  2  0      
 32 33  1  0      
 32 34  1  0      
 34 35  2  0      
 29 35  1  0      
  4 36  1  0      
 36 37  1  0      
 36 38  1  0      
 38 39  1  0      
 38 40  1  0      
  2 40  1  0      
 40 41  1  0      
M  END
>  <Bioactivity>
Extracted from Turpinia arguya Seem dried leaves;Store the product in sealed, cool and dry condition.

>  <CAS>
17306-46-6

>  <Col>
3

>  <Formula>
C27H30O14

>  <ID>
T2755

>  <Index>
542

>  <MOLENAME>
Rhoifolin

>  <MolWt>
578.53

>  <Pathways>
Others

>  <Plate>
PLATE 007

>  <QR code>
1151479480

>  <Receptor>
Others

>  <Reference>
1. Rao YK, et al. Evid Based Complement Alternat Med. 2011;2011:624375.

>  <Row>
G

>  <SMILES>
CC1OC(OC2C(O)C(O)C(CO)OC2OC2=CC(O)=C3C(=O)C=C(OC3=C2)C2=CC=C(O)C=C2)C(O)C(O)C1O

>  <Target>
Others

>  <Weight>
10.1mg

$$$$
Lab-1.sdf
  ChemDraw05232018482D

 16 17  0  0  0  0  0  0  0  0999 V2000
    1.3492    0.0000    0.0000 C   0  0  0  0  0  0  0  0  0  0  0  0
    1.3492    0.0000    0.0000 O   0  0  0  0  0  0  0  0  0  0  0  0
    0.6347    0.0000    0.0000 C   0  0  0  0  0  0  0  0  0  0  0  0
   -0.0797    0.0000    0.0000 O   0  0  0  0  0  0  0  0  0  0  0  0
    0.6347    0.0000    0.0000 C   0  0  0  0  0  0  0  0  0  0  0  0
    1.3492    0.0000    0.0000 C   0  0  0  0  0  0  0  0  0  0  0  0
    1.3492    0.0000    0.0000 O   0  0  0  0  0  0  0  0  0  0  0  0
    0.6347    0.0000    0.0000 C   0  0  0  0  0  0  0  0  0  0  0  0
    0.6347    0.0000    0.0000 O   0  0  0  0  0  0  0  0  0  0  0  0
   -0.0797    0.0000    0.0000 C   0  0  0  0  0  0  0  0  0  0  0  0
   -0.0797    0.0000    0.0000 C   0  0  0  0  0  0  0  0  0  0  0  0
   -0.8644    0.0000    0.0000 C   0  0  0  0  0  0  0  0  0  0  0  0
   -1.3492    0.0000    0.0000 C   0  0  0  0  0  0  0  0  0  0  0  0
   -0.8644    0.0000    0.0000 C   0  0  0  0  0  0  0  0  0  0  0  0
   -1.1193    0.0000    0.0000 C   0  0  0  0  0  0  0  0  0  0  0  0
   -0.5673    0.0000    0.0000 O   0  0  0  0  0  0  0  0  0  0  0  0
  1  2  1  0      
  2  3  1  0      
  3  4  2  0      
  3  5  1  0      
  5  6  2  0      
  6  7  1  0      
  7  8  1  0      
  8  9  1  0      
  8 10  1  0      
 10 11  1  0      
  5 11  1  0      
 11 12  1  0      
 12 13  1  0      
 13 14  2  0      
 10 14  1  0      
 14 15  1  0      
 15 16  1  0      
M  END
>  <Bioactivity>
Genipin is an active aglycone derived from an iridoid glycoside called geniposide, which is found in the fruit of Gardenia jasminoides Ellis.

>  <CAS>
6902-77-8

>  <Col>
4

>  <Formula>
C11H14O5

>  <ID>
T2210

>  <Index>
543

>  <MOLENAME>
Genipin

>  <MolWt>
226.23

>  <Pathways>
Metabolism

>  <Plate>
PLATE 007

>  <QR code>
1151479479

>  <Receptor>
Cholagogues and Choleretics

>  <Reference>
1. Kim JS, et al. Int Immunopharmacol. 2015 Jul;27(1):15-23.

>  <Row>
G

>  <SMILES>
COC(=O)C1=COC(O)C2C1CC=C2CO

>  <Target>
Biliation activator

>  <Weight>
10.3mg

$$$$
Lab-1.sdf
  ChemDraw05232018482D

 17 18  0  0  0  0  0  0  0  0999 V2000
   -3.7359    0.0000    0.0000 Cl  0  0  0  0  0  0  0  0  0  0  0  0
    3.7359    0.0000    0.0000 C   0  0  0  0  0  0  0  0  0  0  0  0
    3.1839    0.0000    0.0000 O   0  0  0  0  0  0  0  0  0  0  0  0
    2.3769    0.0000    0.0000 C   0  0  0  0  0  0  0  0  0  0  0  0
    1.8249    0.0000    0.0000 C   0  0  0  0  0  0  0  0  0  0  0  0
    1.0179    0.0000    0.0000 C   0  0  0  0  0  0  0  0  0  0  0  0
    0.7630    0.0000    0.0000 C   0  0  0  0  0  0  0  0  0  0  0  0
    1.3150    0.0000    0.0000 C   0  0  0  0  0  0  0  0  0  0  0  0
    2.1220    0.0000    0.0000 C   0  0  0  0  0  0  0  0  0  0  0  0
   -0.0619    0.0000    0.0000 C   0  0  0  0  0  0  0  0  0  0  0  0
   -0.3168    0.0000    0.0000 C   0  0  0  0  0  0  0  0  0  0  0  0
    0.3505    0.0000    0.0000 N   0  0  0  0  0  0  0  0  0  0  0  0
   -1.1238    0.0000    0.0000 C   0  0  0  0  0  0  0  0  0  0  0  0
   -1.3788    0.0000    0.0000 C   0  0  0  0  0  0  0  0  0  0  0  0
   -1.6759    0.0000    0.0000 N   0  0  0  0  0  0  0  0  0  0  0  0
   -1.4209    0.0000    0.0000 C   0  0  0  0  0  0  0  0  0  0  0  0
   -0.6139    0.0000    0.0000 C   0  0  0  0  0  0  0  0  0  0  0  0
  2  3  1  0      
  3  4  1  0      
  4  5  2  0      
  5  6  1  0      
  6  7  2  0      
  7  8  1  0      
  8  9  2  0      
  4  9  1  0      
  7 10  1  0      
 10 11  2  0      
 11 12  1  0      
  6 12  1  0      
 11 13  1  0      
 13 14  1  0      
 13 15  2  0      
 15 16  1  0      
 16 17  2  0      
 10 17  1  0      
M  END
>  <Bioactivity>
Extracted from Peganum Harmala Genus;Store the product in sealed, cool and dry condition.

>  <CAS>
343-27-1

>  <Col>
5

>  <Formula>
C13H13ClN2O

>  <ID>
T2811

>  <Index>
544

>  <MOLENAME>
Harmine hydrochloride

>  <MolWt>
248.71

>  <Pathways>
Neuroscience

>  <Plate>
PLATE 007

>  <QR code>
1151479478

>  <Receptor>
glutamate transporter 1

>  <Reference>
1. Sun P, et al. Neurosci Lett. 2014 Nov 7;583:32-6. 

>  <Row>
G

>  <SMILES>
Cl.COC1=CC2=C(C=C1)C1=C(N2)C(C)=NC=C1

>  <Target>
GluR antagonist

>  <Weight>
10.2mg

$$$$
Lab-1.sdf
  ChemDraw05232018482D

 39 43  0  0  0  0  0  0  0  0999 V2000
    2.3469    0.0000    0.0000 C   0  0  0  0  0  0  0  0  0  0  0  0
    1.5176    0.0000    0.0000 O   0  0  0  0  0  0  0  0  0  0  0  0
    0.6944    0.0000    0.0000 C   0  0  0  0  0  0  0  0  0  0  0  0
   -0.0219    0.0000    0.0000 C   0  0  0  0  0  0  0  0  0  0  0  0
    0.2321    0.0000    0.0000 O   0  0  0  0  0  0  0  0  0  0  0  0
    0.7541    0.0000    0.0000 C   0  0  0  0  0  0  0  0  0  0  0  0
   -0.7345    0.0000    0.0000 C   0  0  0  0  0  0  0  0  0  0  0  0
   -1.2818    0.0000    0.0000 O   0  0  0  0  0  0  0  0  0  0  0  0
   -1.3436    0.0000    0.0000 C   0  0  0  0  0  0  0  0  0  0  0  0
   -0.7309    0.0000    0.0000 C   0  0  0  0  0  0  0  0  0  0  0  0
   -0.0146    0.0000    0.0000 C   0  0  0  0  0  0  0  0  0  0  0  0
    0.6980    0.0000    0.0000 C   0  0  0  0  0  0  0  0  0  0  0  0
    0.2024    0.0000    0.0000 C   0  0  0  0  0  0  0  0  0  0  0  0
    1.0907    0.0000    0.0000 O   0  0  0  0  0  0  0  0  0  0  0  0
    1.6585    0.0000    0.0000 C   0  0  0  0  0  0  0  0  0  0  0  0
    1.4112    0.0000    0.0000 O   0  0  0  0  0  0  0  0  0  0  0  0
    2.4638    0.0000    0.0000 C   0  0  0  0  0  0  0  0  0  0  0  0
    2.7111    0.0000    0.0000 C   0  0  0  0  0  0  0  0  0  0  0  0
    3.5164    0.0000    0.0000 C   0  0  0  0  0  0  0  0  0  0  0  0
    4.0743    0.0000    0.0000 C   0  0  0  0  0  0  0  0  0  0  0  0
    3.8270    0.0000    0.0000 C   0  0  0  0  0  0  0  0  0  0  0  0
    3.0217    0.0000    0.0000 C   0  0  0  0  0  0  0  0  0  0  0  0
   -0.2070    0.0000    0.0000 C   0  0  0  0  0  0  0  0  0  0  0  0
    0.0382    0.0000    0.0000 C   0  0  0  0  0  0  0  0  0  0  0  0
    0.4210    0.0000    0.0000 O   0  0  0  0  0  0  0  0  0  0  0  0
   -1.0029    0.0000    0.0000 C   0  0  0  0  0  0  0  0  0  0  0  0
   -1.3079    0.0000    0.0000 C   0  0  0  0  0  0  0  0  0  0  0  0
   -1.7191    0.0000    0.0000 C   0  0  0  0  0  0  0  0  0  0  0  0
   -1.9361    0.0000    0.0000 C   0  0  0  0  0  0  0  0  0  0  0  0
   -2.7611    0.0000    0.0000 C   0  0  0  0  0  0  0  0  0  0  0  0
   -3.1767    0.0000    0.0000 C   0  0  0  0  0  0  0  0  0  0  0  0
   -2.7674    0.0000    0.0000 C   0  0  0  0  0  0  0  0  0  0  0  0
   -3.3221    0.0000    0.0000 O   0  0  0  0  0  0  0  0  0  0  0  0
   -4.0743    0.0000    0.0000 C   0  0  0  0  0  0  0  0  0  0  0  0
   -3.9844    0.0000    0.0000 O   0  0  0  0  0  0  0  0  0  0  0  0
   -1.9424    0.0000    0.0000 C   0  0  0  0  0  0  0  0  0  0  0  0
   -1.6173    0.0000    0.0000 O   0  0  0  0  0  0  0  0  0  0  0  0
   -2.0676    0.0000    0.0000 C   0  0  0  0  0  0  0  0  0  0  0  0
   -1.5267    0.0000    0.0000 C   0  0  0  0  0  0  0  0  0  0  0  0
  1  2  1  0      
  2  3  1  0      
  3  4  2  0      
  4  5  1  0      
  5  6  1  0      
  4  7  1  0      
  7  8  1  0      
  8  9  1  0      
  7 10  2  0      
 10 11  1  0      
 11 12  2  0      
  3 12  1  0      
 11 13  1  0      
 13 14  1  0      
 14 15  1  0      
 15 16  2  0      
 15 17  1  0      
 17 18  2  0      
 18 19  1  0      
 19 20  2  0      
 20 21  1  0      
 21 22  2  0      
 17 22  1  0      
 13 23  1  0      
 23 24  1  0      
 23 25  1  0      
 23 26  1  0      
 26 27  1  0      
 26 28  1  0      
 28 29  1  0      
 29 30  2  0      
 30 31  1  0      
 31 32  2  0      
 32 33  1  0      
 33 34  1  0      
 34 35  1  0      
 31 35  1  0      
 32 36  1  0      
 36 37  1  0      
 37 38  1  0      
 36 39  2  0      
 10 39  1  0      
 29 39  1  0      
M  END
>  <Bioactivity>
Schisantherin A is a dibenzocyclooctadiene lignan isolated from the fruit of Schisandra sphenanthera, has been used as an antitussive, tonic, and sedative agent. Extracted?from?Schisandra chinensis (T
urcz.)Baill. seeds and stems;Store?the?product?in?sealed,?cool?and?dry?condition

>  <CAS>
58546-56-8

>  <Col>
6

>  <Formula>
C30H32O9

>  <ID>
T2913

>  <Index>
545

>  <MOLENAME>
Schisantherin A

>  <MolWt>
536.57

>  <Pathways>
Others

>  <Plate>
PLATE 007

>  <QR code>
1151479477

>  <Receptor>
Others

>  <Reference>
1. Zhou E, et al. Int Immunopharmacol. 2014 Sep;22(1):133-40. 

>  <Row>
G

>  <SMILES>
COC1=C(OC)C(OC)=C2C(=C1)C(OC(=O)C1=CC=CC=C1)C(C)(O)C(C)CC1=CC3=C(OCO3)C(OC)=C21

>  <Target>
Others

>  <Weight>
10.4mg

$$$$
Lab-1.sdf
  ChemDraw05232018482D

 30 33  0  0  0  0  0  0  0  0999 V2000
   -5.0012    0.0000    0.0000 O   0  0  0  0  0  0  0  0  0  0  0  0
   -4.2867    0.0000    0.0000 C   0  0  0  0  0  0  0  0  0  0  0  0
   -3.5723    0.0000    0.0000 C   0  0  0  0  0  0  0  0  0  0  0  0
   -2.8578    0.0000    0.0000 O   0  0  0  0  0  0  0  0  0  0  0  0
   -2.1433    0.0000    0.0000 C   0  0  0  0  0  0  0  0  0  0  0  0
   -1.4290    0.0000    0.0000 O   0  0  0  0  0  0  0  0  0  0  0  0
   -0.7145    0.0000    0.0000 C   0  0  0  0  0  0  0  0  0  0  0  0
   -0.0000    0.0000    0.0000 C   0  0  0  0  0  0  0  0  0  0  0  0
    0.7145    0.0000    0.0000 C   0  0  0  0  0  0  0  0  0  0  0  0
    0.7145    0.0000    0.0000 C   0  0  0  0  0  0  0  0  0  0  0  0
   -0.0000    0.0000    0.0000 C   0  0  0  0  0  0  0  0  0  0  0  0
   -0.7145    0.0000    0.0000 C   0  0  0  0  0  0  0  0  0  0  0  0
    1.4289    0.0000    0.0000 C   0  0  0  0  0  0  0  0  0  0  0  0
    1.4289    0.0000    0.0000 C   0  0  0  0  0  0  0  0  0  0  0  0
    2.1433    0.0000    0.0000 C   0  0  0  0  0  0  0  0  0  0  0  0
    2.1433    0.0000    0.0000 O   0  0  0  0  0  0  0  0  0  0  0  0
    2.8578    0.0000    0.0000 C   0  0  0  0  0  0  0  0  0  0  0  0
    2.8578    0.0000    0.0000 C   0  0  0  0  0  0  0  0  0  0  0  0
    2.1433    0.0000    0.0000 O   0  0  0  0  0  0  0  0  0  0  0  0
    3.5722    0.0000    0.0000 C   0  0  0  0  0  0  0  0  0  0  0  0
    4.2867    0.0000    0.0000 C   0  0  0  0  0  0  0  0  0  0  0  0
    5.0012    0.0000    0.0000 O   0  0  0  0  0  0  0  0  0  0  0  0
    4.2867    0.0000    0.0000 C   0  0  0  0  0  0  0  0  0  0  0  0
    3.5722    0.0000    0.0000 C   0  0  0  0  0  0  0  0  0  0  0  0
   -2.1433    0.0000    0.0000 C   0  0  0  0  0  0  0  0  0  0  0  0
   -1.4290    0.0000    0.0000 O   0  0  0  0  0  0  0  0  0  0  0  0
   -2.8578    0.0000    0.0000 C   0  0  0  0  0  0  0  0  0  0  0  0
   -2.8578    0.0000    0.0000 O   0  0  0  0  0  0  0  0  0  0  0  0
   -3.5723    0.0000    0.0000 C   0  0  0  0  0  0  0  0  0  0  0  0
   -4.2867    0.0000    0.0000 O   0  0  0  0  0  0  0  0  0  0  0  0
  1  2  1  0      
  2  3  1  0      
  3  4  1  0      
  4  5  1  0      
  5  6  1  0      
  6  7  1  0      
  7  8  2  0      
  8  9  1  0      
  9 10  2  0      
 10 11  1  0      
 11 12  2  0      
  7 12  1  0      
 10 13  1  0      
 13 14  1  0      
 14 15  1  0      
 15 16  2  0      
 15 17  1  0      
 17 18  2  0      
 18 19  1  0      
 13 19  1  0      
 18 20  1  0      
 20 21  2  0      
 21 22  1  0      
 21 23  1  0      
 23 24  2  0      
 17 24  1  0      
  5 25  1  0      
 25 26  1  0      
 25 27  1  0      
 27 28  1  0      
 27 29  1  0      
  3 29  1  0      
 29 30  1  0      
M  END
>  <Bioactivity>
Extracted from Radix liquiritiae;Suitability:Carbinol;Store the product in sealed,cool and dry condition

>  <CAS>
551-15-5

>  <Col>
7

>  <Formula>
C21H22O9

>  <ID>
T2899

>  <Index>
546

>  <MOLENAME>
Liquiritin

>  <MolWt>
418.39

>  <Pathways>
Others

>  <Plate>
PLATE 007

>  <QR code>
1151479476

>  <Receptor>
Others

>  <Reference>
1. Zhang W, et al. Biomed Chromatogr. 2014 Sep;28(9):1271-7.

>  <Row>
G

>  <SMILES>
OCC1OC(OC2=CC=C(C=C2)C2CC(=O)C3=C(O2)C=C(O)C=C3)C(O)C(O)C1O

>  <Target>
Others

>  <Weight>
10.2mg

$$$$
Lab-1.sdf
  ChemDraw05232018482D

 92102  0  0  0  0  0  0  0  0999 V2000
   -6.6000    0.0000    0.0000 C   0  0  0  0  0  0  0  0  0  0  0  0
   -6.1875    0.0000    0.0000 C   0  0  0  0  0  0  0  0  0  0  0  0
   -5.3625    0.0000    0.0000 O   0  0  0  0  0  0  0  0  0  0  0  0
   -4.9500    0.0000    0.0000 C   0  0  0  0  0  0  0  0  0  0  0  0
   -4.1250    0.0000    0.0000 O   0  0  0  0  0  0  0  0  0  0  0  0
   -3.7125    0.0000    0.0000 C   0  0  0  0  0  0  0  0  0  0  0  0
   -4.1250    0.0000    0.0000 C   0  0  0  0  0  0  0  0  0  0  0  0
   -4.9500    0.0000    0.0000 O   0  0  0  0  0  0  0  0  0  0  0  0
   -3.7125    0.0000    0.0000 C   0  0  0  0  0  0  0  0  0  0  0  0
   -4.1250    0.0000    0.0000 O   0  0  0  0  0  0  0  0  0  0  0  0
   -2.8875    0.0000    0.0000 C   0  0  0  0  0  0  0  0  0  0  0  0
   -2.4750    0.0000    0.0000 O   0  0  0  0  0  0  0  0  0  0  0  0
   -2.8875    0.0000    0.0000 C   0  0  0  0  0  0  0  0  0  0  0  0
   -2.4750    0.0000    0.0000 O   0  0  0  0  0  0  0  0  0  0  0  0
   -1.6500    0.0000    0.0000 C   0  0  0  0  0  0  0  0  0  0  0  0
   -1.2375    0.0000    0.0000 O   0  0  0  0  0  0  0  0  0  0  0  0
   -1.2375    0.0000    0.0000 C   0  0  0  0  0  0  0  0  0  0  0  0
   -2.0625    0.0000    0.0000 C   0  0  0  0  0  0  0  0  0  0  0  0
   -2.4750    0.0000    0.0000 C   0  0  0  0  0  0  0  0  0  0  0  0
   -2.0625    0.0000    0.0000 C   0  0  0  0  0  0  0  0  0  0  0  0
   -2.8378    0.0000    0.0000 C   0  0  0  0  0  0  0  0  0  0  0  0
   -1.9193    0.0000    0.0000 C   0  0  0  0  0  0  0  0  0  0  0  0
   -1.2375    0.0000    0.0000 C   0  0  0  0  0  0  0  0  0  0  0  0
   -0.8250    0.0000    0.0000 C   0  0  0  0  0  0  0  0  0  0  0  0
   -0.0000    0.0000    0.0000 C   0  0  0  0  0  0  0  0  0  0  0  0
    0.4125    0.0000    0.0000 C   0  0  0  0  0  0  0  0  0  0  0  0
    1.2375    0.0000    0.0000 C   0  0  0  0  0  0  0  0  0  0  0  0
    1.6500    0.0000    0.0000 C   0  0  0  0  0  0  0  0  0  0  0  0
    2.4750    0.0000    0.0000 C   0  0  0  0  0  0  0  0  0  0  0  0
    2.0625    0.0000    0.0000 C   0  0  0  0  0  0  0  0  0  0  0  0
    2.8875    0.0000    0.0000 C   0  0  0  0  0  0  0  0  0  0  0  0
    3.7125    0.0000    0.0000 C   0  0  0  0  0  0  0  0  0  0  0  0
    4.1250    0.0000    0.0000 O   0  0  0  0  0  0  0  0  0  0  0  0
    4.1250    0.0000    0.0000 C   0  0  0  0  0  0  0  0  0  0  0  0
    4.9500    0.0000    0.0000 O   0  0  0  0  0  0  0  0  0  0  0  0
    5.3625    0.0000    0.0000 C   0  0  0  0  0  0  0  0  0  0  0  0
    4.9500    0.0000    0.0000 O   0  0  0  0  0  0  0  0  0  0  0  0
    5.3625    0.0000    0.0000 C   0  0  0  0  0  0  0  0  0  0  0  0
    4.9500    0.0000    0.0000 C   0  0  0  0  0  0  0  0  0  0  0  0
    5.3625    0.0000    0.0000 O   0  0  0  0  0  0  0  0  0  0  0  0
    6.1875    0.0000    0.0000 C   0  0  0  0  0  0  0  0  0  0  0  0
    6.6000    0.0000    0.0000 O   0  0  0  0  0  0  0  0  0  0  0  0
    6.6000    0.0000    0.0000 C   0  0  0  0  0  0  0  0  0  0  0  0
    7.4250    0.0000    0.0000 O   0  0  0  0  0  0  0  0  0  0  0  0
    6.1875    0.0000    0.0000 C   0  0  0  0  0  0  0  0  0  0  0  0
    6.6000    0.0000    0.0000 O   0  0  0  0  0  0  0  0  0  0  0  0
    7.4250    0.0000    0.0000 C   0  0  0  0  0  0  0  0  0  0  0  0
    7.8375    0.0000    0.0000 O   0  0  0  0  0  0  0  0  0  0  0  0
    8.6625    0.0000    0.0000 C   0  0  0  0  0  0  0  0  0  0  0  0
    9.0750    0.0000    0.0000 C   0  0  0  0  0  0  0  0  0  0  0  0
    9.9000    0.0000    0.0000 O   0  0  0  0  0  0  0  0  0  0  0  0
    8.6625    0.0000    0.0000 C   0  0  0  0  0  0  0  0  0  0  0  0
    9.0750    0.0000    0.0000 O   0  0  0  0  0  0  0  0  0  0  0  0
    7.8375    0.0000    0.0000 C   0  0  0  0  0  0  0  0  0  0  0  0
    7.4250    0.0000    0.0000 O   0  0  0  0  0  0  0  0  0  0  0  0
    6.6000    0.0000    0.0000 C   0  0  0  0  0  0  0  0  0  0  0  0
    6.1875    0.0000    0.0000 O   0  0  0  0  0  0  0  0  0  0  0  0
    6.1875    0.0000    0.0000 C   0  0  0  0  0  0  0  0  0  0  0  0
    5.3625    0.0000    0.0000 C   0  0  0  0  0  0  0  0  0  0  0  0
    5.9945    0.0000    0.0000 C   0  0  0  0  0  0  0  0  0  0  0  0
    5.5057    0.0000    0.0000 O   0  0  0  0  0  0  0  0  0  0  0  0
    4.9500    0.0000    0.0000 C   0  0  0  0  0  0  0  0  0  0  0  0
    4.1250    0.0000    0.0000 C   0  0  0  0  0  0  0  0  0  0  0  0
    3.7125    0.0000    0.0000 O   0  0  0  0  0  0  0  0  0  0  0  0
    3.7125    0.0000    0.0000 O   0  0  0  0  0  0  0  0  0  0  0  0
    4.1250    0.0000    0.0000 C   0  0  0  0  0  0  0  0  0  0  0  0
    3.7125    0.0000    0.0000 C   0  0  0  0  0  0  0  0  0  0  0  0
    3.3000    0.0000    0.0000 C   0  0  0  0  0  0  0  0  0  0  0  0
    2.8875    0.0000    0.0000 C   0  0  0  0  0  0  0  0  0  0  0  0
    2.4750    0.0000    0.0000 C   0  0  0  0  0  0  0  0  0  0  0  0
    1.6500    0.0000    0.0000 C   0  0  0  0  0  0  0  0  0  0  0  0
    1.2375    0.0000    0.0000 C   0  0  0  0  0  0  0  0  0  0  0  0
    0.8250    0.0000    0.0000 C   0  0  0  0  0  0  0  0  0  0  0  0
    0.4125    0.0000    0.0000 C   0  0  0  0  0  0  0  0  0  0  0  0
    0.3262    0.0000    0.0000 C   0  0  0  0  0  0  0  0  0  0  0  0
   -0.0000    0.0000    0.0000 C   0  0  0  0  0  0  0  0  0  0  0  0
   -0.8250    0.0000    0.0000 C   0  0  0  0  0  0  0  0  0  0  0  0
   -5.3625    0.0000    0.0000 C   0  0  0  0  0  0  0  0  0  0  0  0
   -4.9500    0.0000    0.0000 O   0  0  0  0  0  0  0  0  0  0  0  0
   -6.1875    0.0000    0.0000 C   0  0  0  0  0  0  0  0  0  0  0  0
   -6.6000    0.0000    0.0000 O   0  0  0  0  0  0  0  0  0  0  0  0
   -7.4250    0.0000    0.0000 C   0  0  0  0  0  0  0  0  0  0  0  0
   -7.8375    0.0000    0.0000 O   0  0  0  0  0  0  0  0  0  0  0  0
   -8.6625    0.0000    0.0000 C   0  0  0  0  0  0  0  0  0  0  0  0
   -9.0750    0.0000    0.0000 C   0  0  0  0  0  0  0  0  0  0  0  0
   -9.9000    0.0000    0.0000 O   0  0  0  0  0  0  0  0  0  0  0  0
   -8.6625    0.0000    0.0000 C   0  0  0  0  0  0  0  0  0  0  0  0
   -9.0750    0.0000    0.0000 O   0  0  0  0  0  0  0  0  0  0  0  0
   -7.8375    0.0000    0.0000 C   0  0  0  0  0  0  0  0  0  0  0  0
   -7.4250    0.0000    0.0000 O   0  0  0  0  0  0  0  0  0  0  0  0
   -6.6000    0.0000    0.0000 C   0  0  0  0  0  0  0  0  0  0  0  0
   -7.4250    0.0000    0.0000 O   0  0  0  0  0  0  0  0  0  0  0  0
  1  2  1  0      
  2  3  1  0      
  3  4  1  0      
  4  5  1  0      
  5  6  1  0      
  6  7  1  0      
  7  8  1  0      
  7  9  1  0      
  9 10  1  0      
  9 11  1  0      
 11 12  1  0      
 12 13  1  0      
  6 13  1  0      
 13 14  1  0      
 14 15  1  0      
 15 16  2  0      
 15 17  1  0      
 17 18  1  0      
 18 19  1  0      
 19 20  1  0      
 20 21  1  0      
 20 22  1  0      
 20 23  1  0      
 23 24  1  0      
 17 24  1  0      
 24 25  1  0      
 25 26  2  0      
 26 27  1  0      
 27 28  1  0      
 28 29  1  0      
 29 30  1  0      
 29 31  1  0      
 31 32  1  0      
 32 33  1  0      
 32 34  1  0      
 34 35  1  0      
 35 36  1  0      
 36 37  1  0      
 37 38  1  0      
 38 39  1  0      
 39 40  1  0      
 38 41  1  0      
 41 42  1  0      
 41 43  1  0      
 43 44  1  0      
 43 45  1  0      
 36 45  1  0      
 45 46  1  0      
 46 47  1  0      
 47 48  1  0      
 48 49  1  0      
 49 50  1  0      
 50 51  1  0      
 50 52  1  0      
 52 53  1  0      
 52 54  1  0      
 47 54  1  0      
 54 55  1  0      
 55 56  1  0      
 56 57  2  0      
 56 58  1  0      
 58 59  1  0      
 59 60  1  0      
 59 61  1  0      
 59 62  1  0      
 62 63  1  0      
 63 64  2  0      
 63 65  1  0      
 65 66  1  0      
 66 67  1  0      
 34 67  1  0      
 67 68  1  0      
 67 69  1  0      
 29 69  1  0      
 69 70  1  0      
 70 71  1  0      
 71 72  1  0      
 28 72  1  0      
 72 73  1  0      
 72 74  1  0      
 25 74  1  0      
 74 75  1  0      
 74 76  1  0      
 76 77  1  0      
 17 77  1  0      
  4 78  1  0      
 78 79  1  0      
 78 80  1  0      
 80 81  1  0      
 81 82  1  0      
 82 83  1  0      
 83 84  1  0      
 84 85  1  0      
 85 86  1  0      
 85 87  1  0      
 87 88  1  0      
 87 89  1  0      
 82 89  1  0      
 89 90  1  0      
 80 91  1  0      
  2 91  1  0      
 91 92  1  0      
M  END
>  <Bioactivity>
Tubeimoside I(Lobatoside-H) is an extract from Chinese herbal medicine Bolbostemma paniculatum (MAXIM.) FRANQUET (Cucurbitaceae) has been shown as a potent anti-tumor agent for a variety of human Ys.

>  <CAS>
102040-03-9

>  <Col>
8

>  <Formula>
C63H98O29

>  <ID>
T2715

>  <Index>
547

>  <MOLENAME>
Tubeimoside I

>  <MolWt>
1319.43

>  <Pathways>
Others

>  <Plate>
PLATE 007

>  <QR code>
1151479475

>  <Receptor>
Others

>  <Reference>
1. Huang P, et al. Int J Mol Med. 2011 Oct;28(4):579-87.

>  <Row>
G

>  <SMILES>
CC1OC(OC2C(O)C(O)COC2OC(=O)C23CCC(C)(C)CC2C2=CCC4C5(C)CC(O)C6OC7OC(CO)C(O)C(O)C7OC7OCC(O)C(O)C7OC(=O)CC(C)(O)CC(=O)OCC6(C)C5CCC4(C)C2(C)CC3)C(O)C(OC2OCC(O)C(O)C2O)C1O

>  <Target>
Others

>  <Weight>
10.1mg

$$$$
Lab-1.sdf
  ChemDraw05232018482D

 12 11  0  0  0  0  0  0  0  0999 V2000
   -1.0718    0.0000    0.0000 N   0  0  0  0  0  0  0  0  0  0  0  0
   -1.0718    0.0000    0.0000 C   0  0  0  0  0  0  0  0  0  0  0  0
   -1.7862    0.0000    0.0000 C   0  0  0  0  0  0  0  0  0  0  0  0
   -2.5006    0.0000    0.0000 O   0  0  0  0  0  0  0  0  0  0  0  0
   -0.3572    0.0000    0.0000 C   0  0  0  0  0  0  0  0  0  0  0  0
   -0.3572    0.0000    0.0000 O   0  0  0  0  0  0  0  0  0  0  0  0
    0.3571    0.0000    0.0000 C   0  0  0  0  0  0  0  0  0  0  0  0
    0.3571    0.0000    0.0000 O   0  0  0  0  0  0  0  0  0  0  0  0
    1.0716    0.0000    0.0000 C   0  0  0  0  0  0  0  0  0  0  0  0
    1.0716    0.0000    0.0000 O   0  0  0  0  0  0  0  0  0  0  0  0
    1.7861    0.0000    0.0000 C   0  0  0  0  0  0  0  0  0  0  0  0
    2.5006    0.0000    0.0000 O   0  0  0  0  0  0  0  0  0  0  0  0
  1  2  1  0      
  2  3  1  0      
  3  4  2  0      
  2  5  1  0      
  5  6  1  0      
  5  7  1  0      
  7  8  1  0      
  7  9  1  0      
  9 10  1  0      
  9 11  1  0      
 11 12  1  0      
M  END
>  <Bioactivity>
Extracted from synthetic product;Store the product in sealed, cool and dry condition

>  <CAS>
29031-19-4

>  <Col>
9

>  <Formula>
C6H13NO5?H2SO4

>  <ID>
T2792

>  <Index>
548

>  <MOLENAME>
Glucosamine sulfate

>  <MolWt>
277.25

>  <Pathways>
Proteases/Proteasome

>  <Plate>
PLATE 007

>  <QR code>
1151479474

>  <Receptor>
MMP-3

>  <Reference>
1. Mavrogonatou E, Angelopoulou MT, Kletsas D. J Orthop Res. 2014 Dec;32(12):1701-7. 

>  <Row>
G

>  <SMILES>
NC(C=O)C(O)C(O)C(O)CO

>  <Target>
MMP inhibitor

>  <Weight>
10.3mg

$$$$
Lab-1.sdf
  ChemDraw05232018482D

 32 35  0  0  0  0  0  0  0  0999 V2000
    0.3572    0.0000    0.0000 C   0  0  0  0  0  0  0  0  0  0  0  0
   -0.3572    0.0000    0.0000 C   0  0  0  0  0  0  0  0  0  0  0  0
   -0.3572    0.0000    0.0000 O   0  0  0  0  0  0  0  0  0  0  0  0
   -1.0717    0.0000    0.0000 C   0  0  0  0  0  0  0  0  0  0  0  0
   -1.0717    0.0000    0.0000 O   0  0  0  0  0  0  0  0  0  0  0  0
   -0.3572    0.0000    0.0000 C   0  0  0  0  0  0  0  0  0  0  0  0
   -0.3572    0.0000    0.0000 C   0  0  0  0  0  0  0  0  0  0  0  0
    0.3572    0.0000    0.0000 O   0  0  0  0  0  0  0  0  0  0  0  0
    1.0717    0.0000    0.0000 C   0  0  0  0  0  0  0  0  0  0  0  0
    1.7862    0.0000    0.0000 C   0  0  0  0  0  0  0  0  0  0  0  0
    2.5007    0.0000    0.0000 C   0  0  0  0  0  0  0  0  0  0  0  0
    3.2151    0.0000    0.0000 O   0  0  0  0  0  0  0  0  0  0  0  0
    2.5007    0.0000    0.0000 C   0  0  0  0  0  0  0  0  0  0  0  0
    1.7862    0.0000    0.0000 C   0  0  0  0  0  0  0  0  0  0  0  0
    1.7862    0.0000    0.0000 O   0  0  0  0  0  0  0  0  0  0  0  0
    1.0717    0.0000    0.0000 C   0  0  0  0  0  0  0  0  0  0  0  0
    0.3572    0.0000    0.0000 C   0  0  0  0  0  0  0  0  0  0  0  0
    0.3572    0.0000    0.0000 O   0  0  0  0  0  0  0  0  0  0  0  0
   -1.0717    0.0000    0.0000 C   0  0  0  0  0  0  0  0  0  0  0  0
   -1.7862    0.0000    0.0000 C   0  0  0  0  0  0  0  0  0  0  0  0
   -2.5006    0.0000    0.0000 C   0  0  0  0  0  0  0  0  0  0  0  0
   -3.2151    0.0000    0.0000 O   0  0  0  0  0  0  0  0  0  0  0  0
   -2.5006    0.0000    0.0000 C   0  0  0  0  0  0  0  0  0  0  0  0
   -3.2151    0.0000    0.0000 O   0  0  0  0  0  0  0  0  0  0  0  0
   -1.7862    0.0000    0.0000 C   0  0  0  0  0  0  0  0  0  0  0  0
   -1.0717    0.0000    0.0000 C   0  0  0  0  0  0  0  0  0  0  0  0
   -1.7862    0.0000    0.0000 C   0  0  0  0  0  0  0  0  0  0  0  0
   -2.5006    0.0000    0.0000 O   0  0  0  0  0  0  0  0  0  0  0  0
   -1.7862    0.0000    0.0000 C   0  0  0  0  0  0  0  0  0  0  0  0
   -2.5006    0.0000    0.0000 O   0  0  0  0  0  0  0  0  0  0  0  0
   -1.0717    0.0000    0.0000 C   0  0  0  0  0  0  0  0  0  0  0  0
   -1.0717    0.0000    0.0000 O   0  0  0  0  0  0  0  0  0  0  0  0
  1  2  1  0      
  2  3  1  0      
  3  4  1  0      
  4  5  1  0      
  5  6  1  0      
  6  7  2  0      
  7  8  1  0      
  8  9  1  0      
  9 10  2  0      
 10 11  1  0      
 11 12  1  0      
 11 13  2  0      
 13 14  1  0      
 14 15  1  0      
 14 16  2  0      
  9 16  1  0      
 16 17  1  0      
  6 17  1  0      
 17 18  2  0      
  7 19  1  0      
 19 20  2  0      
 20 21  1  0      
 21 22  1  0      
 21 23  2  0      
 23 24  1  0      
 23 25  1  0      
 25 26  2  0      
 19 26  1  0      
  4 27  1  0      
 27 28  1  0      
 27 29  1  0      
 29 30  1  0      
 29 31  1  0      
  2 31  1  0      
 31 32  1  0      
M  END
>  <Bioactivity>
Quercitrin is a plant-derived flavonoid compound, displays antioxidant and anti-inflammatory activities.

>  <CAS>
522-12-3

>  <Col>
10

>  <Formula>
C21H20O11

>  <ID>
T2871

>  <Index>
549

>  <MOLENAME>
Quercitrin

>  <MolWt>
448.39

>  <Pathways>
Others

>  <Plate>
PLATE 007

>  <QR code>
1151479473

>  <Receptor>
Others

>  <Reference>
1. Ma JQ, et al. Food Funct. 2015 Oct 28. 

>  <Row>
G

>  <SMILES>
CC1OC(OC2=C(OC3=CC(O)=CC(O)=C3C2=O)C2=CC(O)=C(O)C=C2)C(O)C(O)C1O

>  <Target>
Others

>  <Weight>
10mg

$$$$
Lab-1.sdf
  ChemDraw05232018482D

 15 14  0  0  0  0  0  0  0  0999 V2000
   -1.7861    0.0000    0.0000 C   0  0  0  0  0  0  0  0  0  0  0  0
   -1.7861    0.0000    0.0000 C   0  0  0  0  0  0  0  0  0  0  0  0
   -1.0717    0.0000    0.0000 C   0  0  0  0  0  0  0  0  0  0  0  0
   -0.3572    0.0000    0.0000 C   0  0  0  0  0  0  0  0  0  0  0  0
   -0.3572    0.0000    0.0000 C   0  0  0  0  0  0  0  0  0  0  0  0
   -1.0717    0.0000    0.0000 C   0  0  0  0  0  0  0  0  0  0  0  0
   -1.2780    0.0000    0.0000 O   0  0  0  0  0  0  0  0  0  0  0  0
    0.3572    0.0000    0.0000 C   0  0  0  0  0  0  0  0  0  0  0  0
    1.0717    0.0000    0.0000 O   0  0  0  0  0  0  0  0  0  0  0  0
    0.3572    0.0000    0.0000 O   0  5  0  0  0  0  0  0  0  0  0  0
    0.3572    0.0000    0.0000 C   0  0  0  0  0  0  0  0  0  0  0  0
    0.3572    0.0000    0.0000 O   0  0  0  0  0  0  0  0  0  0  0  0
    1.0717    0.0000    0.0000 O   0  5  0  0  0  0  0  0  0  0  0  0
    0.3572    0.0000    0.0000 Na  0  3  0  0  0  0  0  0  0  0  0  0
    1.7861    0.0000    0.0000 Na  0  3  0  0  0  0  0  0  0  0  0  0
  1  2  1  0      
  2  3  1  0      
  3  4  1  0      
  4  5  1  0      
  5  6  1  0      
  1  6  1  0      
  6  7  1  0      
  3  7  1  0      
  5  8  1  0      
  8  9  2  0      
  8 10  1  0      
  4 11  1  0      
 11 12  2  0      
 11 13  1  0      
M  CHG  4  10  -1  13  -1  14   1  15   1
M  END
>  <Bioactivity>
Extracted from Mylabris phqlarata pallas;Store the product in sealed, cool and dry condition.

>  <CAS>
13114-29-9

>  <Col>
11

>  <Formula>
C8H8Na2O5

>  <ID>
T2736

>  <Index>
550

>  <MOLENAME>
Sodium Demethylcantharidate

>  <MolWt>
230.14

>  <Pathways>
Others

>  <Plate>
PLATE 007

>  <QR code>
1151479472

>  <Receptor>
Others

>  <Reference>
1. Goldstein P, Leshem M. Appetite. 2014 Aug;79:83-90

>  <Row>
G

>  <SMILES>
C1CC2C(C(C1O2)C(=O)[O-])C(=O)[O-].[Na+].[Na+]

>  <Target>
Others

>  <Weight>
10.2mg

$$$$
Lab-1.sdf
  ChemDraw05232018482D

 55 62  0  0  0  0  0  0  0  0999 V2000
    0.9498    0.0000    0.0000 C   0  0  0  0  0  0  0  0  0  0  0  0
    1.3801    0.0000    0.0000 C   0  0  0  0  0  0  0  0  0  0  0  0
    0.9858    0.0000    0.0000 O   0  0  0  0  0  0  0  0  0  0  0  0
    1.4161    0.0000    0.0000 C   0  0  0  0  0  0  0  0  0  0  0  0
    1.0218    0.0000    0.0000 O   0  0  0  0  0  0  0  0  0  0  0  0
    0.1970    0.0000    0.0000 C   0  0  0  0  0  0  0  0  0  0  0  0
   -0.2333    0.0000    0.0000 C   0  0  0  0  0  0  0  0  0  0  0  0
   -1.0581    0.0000    0.0000 C   0  0  0  0  0  0  0  0  0  0  0  0
   -1.4524    0.0000    0.0000 C   0  0  0  0  0  0  0  0  0  0  0  0
   -1.8827    0.0000    0.0000 C   0  0  0  0  0  0  0  0  0  0  0  0
   -1.0221    0.0000    0.0000 C   0  0  0  0  0  0  0  0  0  0  0  0
   -1.4164    0.0000    0.0000 C   0  0  0  0  0  0  0  0  0  0  0  0
   -2.2411    0.0000    0.0000 C   0  0  0  0  0  0  0  0  0  0  0  0
   -2.6714    0.0000    0.0000 C   0  0  0  0  0  0  0  0  0  0  0  0
   -3.0596    0.0000    0.0000 C   0  0  0  0  0  0  0  0  0  0  0  0
   -2.2771    0.0000    0.0000 C   0  0  0  0  0  0  0  0  0  0  0  0
   -2.6998    0.0000    0.0000 C   0  0  0  0  0  0  0  0  0  0  0  0
   -3.5261    0.0000    0.0000 C   0  0  0  0  0  0  0  0  0  0  0  0
   -3.9760    0.0000    0.0000 C   0  0  0  0  0  0  0  0  0  0  0  0
   -4.6977    0.0000    0.0000 O   0  0  0  0  0  0  0  0  0  0  0  0
   -5.4250    0.0000    0.0000 C   0  0  0  0  0  0  0  0  0  0  0  0
   -5.1989    0.0000    0.0000 C   0  0  0  0  0  0  0  0  0  0  0  0
   -5.8980    0.0000    0.0000 C   0  0  0  0  0  0  0  0  0  0  0  0
   -5.8682    0.0000    0.0000 C   0  0  0  0  0  0  0  0  0  0  0  0
   -5.1393    0.0000    0.0000 C   0  0  0  0  0  0  0  0  0  0  0  0
   -4.5865    0.0000    0.0000 C   0  0  0  0  0  0  0  0  0  0  0  0
   -5.6464    0.0000    0.0000 C   0  0  0  0  0  0  0  0  0  0  0  0
   -4.4402    0.0000    0.0000 C   0  0  0  0  0  0  0  0  0  0  0  0
   -4.4700    0.0000    0.0000 C   0  0  0  0  0  0  0  0  0  0  0  0
   -4.7751    0.0000    0.0000 C   0  0  0  0  0  0  0  0  0  0  0  0
   -5.1941    0.0000    0.0000 O   0  0  0  0  0  0  0  0  0  0  0  0
   -3.9149    0.0000    0.0000 C   0  0  0  0  0  0  0  0  0  0  0  0
   -3.5128    0.0000    0.0000 C   0  0  0  0  0  0  0  0  0  0  0  0
   -3.5616    0.0000    0.0000 C   0  0  0  0  0  0  0  0  0  0  0  0
   -0.1973    0.0000    0.0000 C   0  0  0  0  0  0  0  0  0  0  0  0
    0.5131    0.0000    0.0000 C   0  0  0  0  0  0  0  0  0  0  0  0
   -0.1478    0.0000    0.0000 C   0  0  0  0  0  0  0  0  0  0  0  0
    0.5902    0.0000    0.0000 O   0  0  0  0  0  0  0  0  0  0  0  0
    2.2408    0.0000    0.0000 C   0  0  0  0  0  0  0  0  0  0  0  0
    2.6712    0.0000    0.0000 O   0  0  0  0  0  0  0  0  0  0  0  0
    2.6351    0.0000    0.0000 C   0  0  0  0  0  0  0  0  0  0  0  0
    3.4599    0.0000    0.0000 O   0  0  0  0  0  0  0  0  0  0  0  0
    3.8543    0.0000    0.0000 C   0  0  0  0  0  0  0  0  0  0  0  0
    3.4239    0.0000    0.0000 O   0  0  0  0  0  0  0  0  0  0  0  0
    3.8182    0.0000    0.0000 C   0  0  0  0  0  0  0  0  0  0  0  0
    3.3879    0.0000    0.0000 C   0  0  0  0  0  0  0  0  0  0  0  0
    2.5631    0.0000    0.0000 O   0  0  0  0  0  0  0  0  0  0  0  0
    4.6429    0.0000    0.0000 C   0  0  0  0  0  0  0  0  0  0  0  0
    5.0372    0.0000    0.0000 O   0  0  0  0  0  0  0  0  0  0  0  0
    5.0733    0.0000    0.0000 C   0  0  0  0  0  0  0  0  0  0  0  0
    5.8980    0.0000    0.0000 O   0  0  0  0  0  0  0  0  0  0  0  0
    4.6789    0.0000    0.0000 C   0  0  0  0  0  0  0  0  0  0  0  0
    5.1093    0.0000    0.0000 O   0  0  0  0  0  0  0  0  0  0  0  0
    2.2048    0.0000    0.0000 C   0  0  0  0  0  0  0  0  0  0  0  0
    2.5991    0.0000    0.0000 O   0  0  0  0  0  0  0  0  0  0  0  0
  1  2  1  0      
  2  3  1  0      
  3  4  1  0      
  4  5  1  0      
  5  6  1  0      
  6  7  1  0      
  7  8  1  0      
  8  9  1  0      
  9 10  1  0      
  9 11  1  0      
 11 12  1  0      
 12 13  1  0      
 13 14  1  0      
 14 15  1  0      
 14 16  1  0      
  9 16  1  0      
 16 17  1  0      
 17 18  2  0      
 18 19  1  0      
 19 20  1  0      
 20 21  1  0      
 21 22  1  0      
 22 23  1  0      
 23 24  1  0      
 24 25  1  0      
 25 26  1  0      
 25 27  1  0      
 25 28  1  0      
 28 29  1  0      
 19 29  1  0      
 22 29  1  0      
 22 30  1  0      
 30 31  1  0      
 30 32  1  0      
 32 33  1  0      
 14 33  1  0      
 19 33  1  0      
 33 34  1  0      
 11 35  1  0      
  6 35  1  0      
 35 36  1  0      
 35 37  1  0      
 37 38  1  0      
  4 39  1  0      
 39 40  1  0      
 39 41  1  0      
 41 42  1  0      
 42 43  1  0      
 43 44  1  0      
 44 45  1  0      
 45 46  1  0      
 46 47  1  0      
 45 48  1  0      
 48 49  1  0      
 48 50  1  0      
 50 51  1  0      
 50 52  1  0      
 43 52  1  0      
 52 53  1  0      
 41 54  1  0      
  2 54  1  0      
 54 55  1  0      
M  END
>  <Bioactivity>
Extracted from Bupleurum,scorzonerifolium;Suitability:Water,dilute alcohol,especially the hot water,hot alcohol,butanol and pentanol;Store the product in sealed,cool and dry condition

>  <CAS>
20736-09-8

>  <Col>
2

>  <Formula>
C42H68O13

>  <ID>
T2768

>  <Index>
551

>  <MOLENAME>
Saikosaponin A

>  <MolWt>
780.99

>  <Pathways>
Immunology/Inflammation

>  <Plate>
PLATE 007

>  <QR code>
1151479460

>  <Receptor>
NF-¦ÊB

>  <Reference>
1. Zhao H, et al. Exp Ther Med. 2015 Aug;10(2):823-827.

>  <Row>
H

>  <SMILES>
CC1OC(OC2CCC3(C)C(CCC4(C)C3C=CC35OCC6(CCC(C)(C)CC36)C(O)CC45C)C2(C)CO)C(O)C(OC2OC(CO)C(O)C(O)C2O)C1O

>  <Target>
NF-¦ÊB inhibitor

>  <Weight>
10.4mg

$$$$
Lab-1.sdf
  ChemDraw05232018482D

 35 39  0  0  0  0  0  0  0  0999 V2000
   -2.7057    0.0000    0.0000 O   0  0  0  0  0  0  0  0  0  0  0  0
   -2.1099    0.0000    0.0000 C   0  0  0  0  0  0  0  0  0  0  0  0
   -1.3178    0.0000    0.0000 C   0  0  0  0  0  0  0  0  0  0  0  0
   -0.7220    0.0000    0.0000 O   0  0  0  0  0  0  0  0  0  0  0  0
    0.0701    0.0000    0.0000 C   0  0  0  0  0  0  0  0  0  0  0  0
    0.6660    0.0000    0.0000 O   0  0  0  0  0  0  0  0  0  0  0  0
    0.4697    0.0000    0.0000 C   0  0  0  0  0  0  0  0  0  0  0  0
   -0.3224    0.0000    0.0000 O   0  0  0  0  0  0  0  0  0  0  0  0
   -0.5186    0.0000    0.0000 C   0  0  0  0  0  0  0  0  0  0  0  0
    0.0772    0.0000    0.0000 C   0  0  0  0  0  0  0  0  0  0  0  0
    0.8693    0.0000    0.0000 C   0  0  0  0  0  0  0  0  0  0  0  0
    1.5708    0.0000    0.0000 C   0  0  0  0  0  0  0  0  0  0  0  0
    1.6317    0.0000    0.0000 O   0  0  0  0  0  0  0  0  0  0  0  0
    0.9497    0.0000    0.0000 C   0  0  0  0  0  0  0  0  0  0  0  0
    0.2067    0.0000    0.0000 O   0  0  0  0  0  0  0  0  0  0  0  0
    1.0107    0.0000    0.0000 C   0  0  0  0  0  0  0  0  0  0  0  0
    0.3287    0.0000    0.0000 C   0  0  0  0  0  0  0  0  0  0  0  0
    0.3896    0.0000    0.0000 C   0  0  0  0  0  0  0  0  0  0  0  0
   -0.2924    0.0000    0.0000 C   0  0  0  0  0  0  0  0  0  0  0  0
   -0.2314    0.0000    0.0000 C   0  0  0  0  0  0  0  0  0  0  0  0
    0.5116    0.0000    0.0000 C   0  0  0  0  0  0  0  0  0  0  0  0
    1.1936    0.0000    0.0000 C   0  0  0  0  0  0  0  0  0  0  0  0
    1.1326    0.0000    0.0000 C   0  0  0  0  0  0  0  0  0  0  0  0
    2.2005    0.0000    0.0000 C   0  0  0  0  0  0  0  0  0  0  0  0
    2.7057    0.0000    0.0000 O   0  0  0  0  0  0  0  0  0  0  0  0
    1.8883    0.0000    0.0000 C   0  0  0  0  0  0  0  0  0  0  0  0
    1.9137    0.0000    0.0000 C   0  0  0  0  0  0  0  0  0  0  0  0
    1.2122    0.0000    0.0000 O   0  0  0  0  0  0  0  0  0  0  0  0
    1.0656    0.0000    0.0000 C   0  0  0  0  0  0  0  0  0  0  0  0
    0.2664    0.0000    0.0000 C   0  0  0  0  0  0  0  0  0  0  0  0
    1.0585    0.0000    0.0000 O   0  0  0  0  0  0  0  0  0  0  0  0
   -0.3295    0.0000    0.0000 C   0  0  0  0  0  0  0  0  0  0  0  0
   -0.1332    0.0000    0.0000 O   0  0  0  0  0  0  0  0  0  0  0  0
   -1.1215    0.0000    0.0000 C   0  0  0  0  0  0  0  0  0  0  0  0
   -1.7174    0.0000    0.0000 O   0  0  0  0  0  0  0  0  0  0  0  0
  1  2  1  0      
  2  3  1  0      
  3  4  1  0      
  4  5  1  0      
  5  6  1  0      
  6  7  1  0      
  7  8  1  0      
  8  9  1  0      
  9 10  2  0      
 10 11  1  0      
 11 12  1  0      
 12 13  1  0      
 13 14  1  0      
 14 15  2  0      
 16 14  1  4      
 16 17  2  0      
 17 18  1  0      
 18 19  2  0      
 19 20  1  0      
 20 21  2  0      
 21 22  1  0      
 22 23  2  0      
 18 23  1  0      
 12 24  1  0      
 24 25  1  0      
 25 26  1  0      
 24 26  1  0      
 26 27  1  0      
 27 28  1  0      
 26 29  1  0      
  7 29  1  0      
 11 29  1  0      
  5 30  1  0      
 30 31  1  0      
 30 32  1  0      
 32 33  1  0      
 32 34  1  0      
  3 34  1  0      
 34 35  1  0      
M  END
>  <Bioactivity>
Extracted from Picrorhiza;Store the product in sealed,cool and dry condition

>  <CAS>
27409-30-9

>  <Col>
3

>  <Formula>
C24H28O11

>  <ID>
T2787

>  <Index>
552

>  <MOLENAME>
Picroside I

>  <MolWt>
492.47

>  <Pathways>
Others

>  <Plate>
PLATE 007

>  <QR code>
1151479461

>  <Receptor>
Others

>  <Reference>
1. Zhu J, et al. J Chromatogr B Analyt Technol Biomed Life Sci. 2015 Jul 1;993-994:47-59. 

>  <Row>
H

>  <SMILES>
OCC1OC(OC2OC=CC3C(OC(=O)C=CC4=CC=CC=C4)C4OC4(CO)C23)C(O)C(O)C1O

>  <Target>
Others

>  <Weight>
10.2mg

$$$$
Lab-1.sdf
  ChemDraw05232018482D

 10 10  0  0  0  0  0  0  0  0999 V2000
    0.0000    0.0000    0.0000 C   0  0  0  0  0  0  0  0  0  0  0  0
    0.0000    0.0000    0.0000 C   0  0  0  0  0  0  0  0  0  0  0  0
    0.7145    0.0000    0.0000 N   0  0  0  0  0  0  0  0  0  0  0  0
    0.7145    0.0000    0.0000 C   0  0  0  0  0  0  0  0  0  0  0  0
    1.4289    0.0000    0.0000 C   0  0  0  0  0  0  0  0  0  0  0  0
    0.0000    0.0000    0.0000 C   0  0  0  0  0  0  0  0  0  0  0  0
    0.0000    0.0000    0.0000 C   0  0  0  0  0  0  0  0  0  0  0  0
   -0.7145    0.0000    0.0000 N   0  0  0  0  0  0  0  0  0  0  0  0
   -0.7145    0.0000    0.0000 C   0  0  0  0  0  0  0  0  0  0  0  0
   -1.4289    0.0000    0.0000 C   0  0  0  0  0  0  0  0  0  0  0  0
  1  2  1  0      
  2  3  2  0      
  3  4  1  0      
  4  5  1  0      
  4  6  2  0      
  6  7  1  0      
  6  8  1  0      
  8  9  2  0      
  2  9  1  0      
  9 10  1  0      
M  END
>  <Bioactivity>
Extracted from Ligusticum chuanxiong Hort.;Suitability:Hot water,petroleum ether;Store the product in sealed,cool and dry condition

>  <CAS>
1124-11-4

>  <Col>
4

>  <Formula>
C8H12N2

>  <ID>
T2722

>  <Index>
553

>  <MOLENAME>
Tetramethylpyrazine

>  <MolWt>
136.2

>  <Pathways>
Others

>  <Plate>
PLATE 007

>  <QR code>
1151479462

>  <Receptor>
Others

>  <Reference>
1. Guan D, et al. J Neurochem. 2015 Aug;134(3):551-65. 

>  <Row>
H

>  <SMILES>
CC1=NC(C)=C(C)N=C1C

>  <Target>
Others

>  <Weight>
10.1mg

$$$$
Lab-1.sdf
  ChemDraw05232018482D

 55 60  0  0  0  0  0  0  0  0999 V2000
   -1.5956    0.0000    0.0000 C   0  0  0  0  0  0  0  0  0  0  0  0
   -2.1275    0.0000    0.0000 C   0  0  0  0  0  0  0  0  0  0  0  0
   -1.8472    0.0000    0.0000 O   0  0  0  0  0  0  0  0  0  0  0  0
   -2.3790    0.0000    0.0000 C   0  0  0  0  0  0  0  0  0  0  0  0
   -2.0987    0.0000    0.0000 O   0  0  0  0  0  0  0  0  0  0  0  0
   -1.2866    0.0000    0.0000 C   0  0  0  0  0  0  0  0  0  0  0  0
   -0.7547    0.0000    0.0000 C   0  0  0  0  0  0  0  0  0  0  0  0
   -1.0350    0.0000    0.0000 O   0  0  0  0  0  0  0  0  0  0  0  0
    0.0575    0.0000    0.0000 C   0  0  0  0  0  0  0  0  0  0  0  0
    0.5893    0.0000    0.0000 O   0  0  0  0  0  0  0  0  0  0  0  0
    0.3378    0.0000    0.0000 C   0  0  0  0  0  0  0  0  0  0  0  0
    1.1499    0.0000    0.0000 C   0  0  0  0  0  0  0  0  0  0  0  0
    1.4302    0.0000    0.0000 O   0  0  0  0  0  0  0  0  0  0  0  0
   -0.1942    0.0000    0.0000 O   0  0  0  0  0  0  0  0  0  0  0  0
   -1.0063    0.0000    0.0000 C   0  0  0  0  0  0  0  0  0  0  0  0
   -1.5381    0.0000    0.0000 O   0  0  0  0  0  0  0  0  0  0  0  0
   -1.2578    0.0000    0.0000 C   0  0  0  0  0  0  0  0  0  0  0  0
   -0.4457    0.0000    0.0000 C   0  0  0  0  0  0  0  0  0  0  0  0
   -0.1654    0.0000    0.0000 C   0  0  0  0  0  0  0  0  0  0  0  0
    0.3665    0.0000    0.0000 C   0  0  0  0  0  0  0  0  0  0  0  0
   -0.6972    0.0000    0.0000 C   0  0  0  0  0  0  0  0  0  0  0  0
   -0.4169    0.0000    0.0000 C   0  0  0  0  0  0  0  0  0  0  0  0
    0.3953    0.0000    0.0000 C   0  0  0  0  0  0  0  0  0  0  0  0
    0.6756    0.0000    0.0000 O   0  0  0  0  0  0  0  0  0  0  0  0
    0.9271    0.0000    0.0000 C   0  0  0  0  0  0  0  0  0  0  0  0
    1.7517    0.0000    0.0000 C   0  0  0  0  0  0  0  0  0  0  0  0
    1.9810    0.0000    0.0000 C   0  0  0  0  0  0  0  0  0  0  0  0
    1.2982    0.0000    0.0000 C   0  0  0  0  0  0  0  0  0  0  0  0
    0.6468    0.0000    0.0000 C   0  0  0  0  0  0  0  0  0  0  0  0
    0.7064    0.0000    0.0000 C   0  0  0  0  0  0  0  0  0  0  0  0
    2.2581    0.0000    0.0000 C   0  0  0  0  0  0  0  0  0  0  0  0
    2.9094    0.0000    0.0000 C   0  0  0  0  0  0  0  0  0  0  0  0
    1.6067    0.0000    0.0000 O   0  0  0  0  0  0  0  0  0  0  0  0
    2.7644    0.0000    0.0000 C   0  0  0  0  0  0  0  0  0  0  0  0
    3.5817    0.0000    0.0000 C   0  0  0  0  0  0  0  0  0  0  0  0
    4.0880    0.0000    0.0000 C   0  0  0  0  0  0  0  0  0  0  0  0
    3.7771    0.0000    0.0000 C   0  0  0  0  0  0  0  0  0  0  0  0
    4.2835    0.0000    0.0000 C   0  0  0  0  0  0  0  0  0  0  0  0
    2.9599    0.0000    0.0000 C   0  0  0  0  0  0  0  0  0  0  0  0
   -1.5093    0.0000    0.0000 C   0  0  0  0  0  0  0  0  0  0  0  0
   -1.2290    0.0000    0.0000 C   0  0  0  0  0  0  0  0  0  0  0  0
   -2.0411    0.0000    0.0000 C   0  0  0  0  0  0  0  0  0  0  0  0
   -2.8532    0.0000    0.0000 C   0  0  0  0  0  0  0  0  0  0  0  0
   -3.1335    0.0000    0.0000 C   0  0  0  0  0  0  0  0  0  0  0  0
   -3.9457    0.0000    0.0000 O   0  0  0  0  0  0  0  0  0  0  0  0
   -2.6017    0.0000    0.0000 C   0  0  0  0  0  0  0  0  0  0  0  0
   -3.3152    0.0000    0.0000 C   0  0  0  0  0  0  0  0  0  0  0  0
   -2.3177    0.0000    0.0000 C   0  0  0  0  0  0  0  0  0  0  0  0
   -1.7896    0.0000    0.0000 C   0  0  0  0  0  0  0  0  0  0  0  0
   -3.1911    0.0000    0.0000 C   0  0  0  0  0  0  0  0  0  0  0  0
   -3.7229    0.0000    0.0000 O   0  0  0  0  0  0  0  0  0  0  0  0
   -3.4714    0.0000    0.0000 C   0  0  0  0  0  0  0  0  0  0  0  0
   -4.2835    0.0000    0.0000 O   0  0  0  0  0  0  0  0  0  0  0  0
   -2.9396    0.0000    0.0000 C   0  0  0  0  0  0  0  0  0  0  0  0
   -3.2199    0.0000    0.0000 O   0  0  0  0  0  0  0  0  0  0  0  0
  1  2  1  0      
  2  3  1  0      
  3  4  1  0      
  4  5  1  0      
  5  6  1  0      
  6  7  1  0      
  7  8  1  0      
  7  9  1  0      
  9 10  1  0      
  9 11  1  0      
 11 12  1  0      
 12 13  1  0      
 11 14  1  0      
 14 15  1  0      
  6 15  1  0      
 15 16  1  0      
 16 17  1  0      
 17 18  1  0      
 18 19  1  0      
 19 20  1  0      
 19 21  1  0      
 21 22  1  0      
 22 23  1  0      
 23 24  1  0      
 23 25  1  0      
 25 26  1  0      
 26 27  1  0      
 27 28  1  0      
 28 29  1  0      
 19 29  1  0      
 25 29  1  0      
 29 30  1  0      
 26 31  1  0      
 31 32  1  0      
 31 33  1  0      
 31 34  1  0      
 34 35  1  0      
 35 36  1  0      
 36 37  2  0      
 37 38  1  0      
 37 39  1  0      
 21 40  1  0      
 40 41  1  0      
 40 42  1  0      
 42 43  1  0      
 43 44  1  0      
 44 45  1  0      
 44 46  1  0      
 46 47  1  0      
 46 48  1  0      
 46 49  1  0      
 17 49  1  0      
 40 49  1  0      
  4 50  1  0      
 50 51  1  0      
 50 52  1  0      
 52 53  1  0      
 52 54  1  0      
  2 54  1  0      
 54 55  1  0      
M  END
>  <Bioactivity>
Ginsenoside Rg2 may have properties that inhibit or prevent the growth of tumors.

>  <CAS>
52286-74-5

>  <Col>
5

>  <Formula>
C42H72O13

>  <ID>
T2873

>  <Index>
554

>  <MOLENAME>
Ginsenoside Rg2

>  <MolWt>
785.01

>  <Pathways>
PI3K/Akt/mTOR Signaling

>  <Plate>
PLATE 007

>  <QR code>
1151479463

>  <Receptor>
GSK3¦Â 

>  <Reference>
1. Cho YS, et al. Korean J Physiol Pharmacol. 2013 Apr;17(2):133-7.

>  <Row>
H

>  <SMILES>
CC1OC(OC2C(O)C(O)C(CO)OC2OC2CC3(C)C(CC(O)C4C(CCC34C)C(C)(O)CCC=C(C)C)C3(C)CCC(O)C(C)(C)C23)C(O)C(O)C1O

>  <Target>
GSK-3 inhibitor

>  <Weight>
10.3mg

$$$$
Lab-1.sdf
  ChemDraw05232018482D

 33 35  0  0  0  0  0  0  0  0999 V2000
   -4.7509    0.0000    0.0000 Cl  0  0  0  0  0  0  0  0  0  0  0  0
   -0.9648    0.0000    0.0000 C   0  0  0  0  0  0  0  0  0  0  0  0
   -0.2504    0.0000    0.0000 N   0  0  0  0  0  0  0  0  0  0  0  0
    0.4641    0.0000    0.0000 C   0  0  0  0  0  0  0  0  0  0  0  0
   -0.2504    0.0000    0.0000 C   0  0  0  0  0  0  0  0  0  0  0  0
    0.4641    0.0000    0.0000 C   0  0  0  0  0  0  0  0  0  0  0  0
    1.1785    0.0000    0.0000 C   0  0  0  0  0  0  0  0  0  0  0  0
    1.1785    0.0000    0.0000 O   0  0  0  0  0  0  0  0  0  0  0  0
    1.8930    0.0000    0.0000 C   0  0  0  0  0  0  0  0  0  0  0  0
    2.6074    0.0000    0.0000 C   0  0  0  0  0  0  0  0  0  0  0  0
    2.6074    0.0000    0.0000 C   0  0  0  0  0  0  0  0  0  0  0  0
    3.3219    0.0000    0.0000 C   0  0  0  0  0  0  0  0  0  0  0  0
    3.3219    0.0000    0.0000 C   0  0  0  0  0  0  0  0  0  0  0  0
    4.0364    0.0000    0.0000 C   0  0  0  0  0  0  0  0  0  0  0  0
    4.0364    0.0000    0.0000 O   0  0  0  0  0  0  0  0  0  0  0  0
    4.7509    0.0000    0.0000 C   0  0  0  0  0  0  0  0  0  0  0  0
    4.7509    0.0000    0.0000 C   0  0  0  0  0  0  0  0  0  0  0  0
    4.0364    0.0000    0.0000 C   0  0  0  0  0  0  0  0  0  0  0  0
    2.6074    0.0000    0.0000 C   0  0  0  0  0  0  0  0  0  0  0  0
    2.6074    0.0000    0.0000 O   0  0  0  0  0  0  0  0  0  0  0  0
    1.8930    0.0000    0.0000 C   0  0  0  0  0  0  0  0  0  0  0  0
    1.1785    0.0000    0.0000 C   0  0  0  0  0  0  0  0  0  0  0  0
    1.1785    0.0000    0.0000 O   0  0  0  0  0  0  0  0  0  0  0  0
    0.4641    0.0000    0.0000 C   0  0  0  0  0  0  0  0  0  0  0  0
    0.4641    0.0000    0.0000 O   0  0  0  0  0  0  0  0  0  0  0  0
   -0.2504    0.0000    0.0000 C   0  0  0  0  0  0  0  0  0  0  0  0
   -0.2504    0.0000    0.0000 O   0  0  0  0  0  0  0  0  0  0  0  0
   -0.9648    0.0000    0.0000 C   0  0  0  0  0  0  0  0  0  0  0  0
   -1.6793    0.0000    0.0000 C   0  0  0  0  0  0  0  0  0  0  0  0
   -2.3938    0.0000    0.0000 N   0  0  0  0  0  0  0  0  0  0  0  0
   -1.6793    0.0000    0.0000 O   0  0  0  0  0  0  0  0  0  0  0  0
   -0.9648    0.0000    0.0000 C   0  0  0  0  0  0  0  0  0  0  0  0
   -1.6793    0.0000    0.0000 O   0  0  0  0  0  0  0  0  0  0  0  0
  2  3  1  0      
  3  4  1  0      
  3  5  1  0      
  5  6  1  0      
  6  7  1  0      
  7  8  1  0      
  7  9  1  0      
  9 10  1  0      
 10 11  2  0      
 10 12  1  0      
 12 13  2  0      
 13 14  1  0      
 14 15  1  0      
 14 16  2  0      
 16 17  1  0      
 17 18  2  0      
 12 18  1  0      
 13 19  1  0      
 19 20  1  0      
 19 21  2  0      
  9 21  1  0      
 21 22  1  0      
 22 23  2  0      
 22 24  1  0      
  6 24  1  0      
 24 25  1  0      
 24 26  1  0      
 26 27  1  0      
 26 28  2  0      
 28 29  1  0      
 29 30  1  0      
 29 31  2  0      
 28 32  1  0      
  5 32  1  0      
 32 33  2  0      
M  END
>  <Bioactivity>
Methacycline hydrochloride is a tetracycline antibiotic, and also an inhibitor of epithelial?mesenchymal transition (EMT) with IC50 of roughly 5 ¦ÌM, used to treat various infections.

>  <CAS>
3963-95-9

>  <Col>
6

>  <Formula>
C22H23ClN2O8

>  <ID>
T0518

>  <Index>
555

>  <MOLENAME>
Methacycline hydrochloride

>  <MolWt>
478.88

>  <Pathways>
Microbiology & Virology

>  <Plate>
PLATE 007

>  <QR code>
1151479464

>  <Receptor>
30S ribosomal protein; 16S ribosomal protein

>  <Reference>
1. Xi Y, et al. Am J Respir Cell Mol Biol,?014, 50(1), 51-60.

>  <Row>
H

>  <SMILES>
Cl.CN(C)C1C2C(O)C3C(=C)C4=C(C(O)=CC=C4)C(O)=C3C(=O)C2(O)C(O)=C(C(N)=O)C1=O

>  <Target>
Antibiotic

>  <Weight>
10.3mg

$$$$
Lab-1.sdf
  ChemDraw05232018482D

 30 33  0  0  0  0  0  0  0  0999 V2000
    2.3522    0.0000    0.0000 C   0  0  0  0  0  0  0  0  0  0  0  0
    1.5272    0.0000    0.0000 C   0  0  0  0  0  0  0  0  0  0  0  0
    1.1147    0.0000    0.0000 C   0  0  0  0  0  0  0  0  0  0  0  0
    0.2897    0.0000    0.0000 C   0  0  0  0  0  0  0  0  0  0  0  0
   -0.1227    0.0000    0.0000 C   0  0  0  0  0  0  0  0  0  0  0  0
   -0.9477    0.0000    0.0000 C   0  0  0  0  0  0  0  0  0  0  0  0
   -1.3602    0.0000    0.0000 C   0  0  0  0  0  0  0  0  0  0  0  0
   -1.3602    0.0000    0.0000 C   0  0  0  0  0  0  0  0  0  0  0  0
   -2.1807    0.0000    0.0000 C   0  0  0  0  0  0  0  0  0  0  0  0
   -2.3522    0.0000    0.0000 C   0  0  0  0  0  0  0  0  0  0  0  0
   -1.6377    0.0000    0.0000 C   0  0  0  0  0  0  0  0  0  0  0  0
   -1.4662    0.0000    0.0000 C   0  0  0  0  0  0  0  0  0  0  0  0
   -2.0793    0.0000    0.0000 C   0  0  0  0  0  0  0  0  0  0  0  0
   -1.9078    0.0000    0.0000 C   0  0  0  0  0  0  0  0  0  0  0  0
   -1.1231    0.0000    0.0000 C   0  0  0  0  0  0  0  0  0  0  0  0
   -0.9516    0.0000    0.0000 C   0  0  0  0  0  0  0  0  0  0  0  0
   -0.1670    0.0000    0.0000 C   0  0  0  0  0  0  0  0  0  0  0  0
    0.0044    0.0000    0.0000 O   0  0  0  0  0  0  0  0  0  0  0  0
    0.4460    0.0000    0.0000 C   0  0  0  0  0  0  0  0  0  0  0  0
    0.2745    0.0000    0.0000 C   0  0  0  0  0  0  0  0  0  0  0  0
   -0.5100    0.0000    0.0000 C   0  0  0  0  0  0  0  0  0  0  0  0
    0.1030    0.0000    0.0000 C   0  0  0  0  0  0  0  0  0  0  0  0
   -0.6816    0.0000    0.0000 C   0  0  0  0  0  0  0  0  0  0  0  0
   -0.0685    0.0000    0.0000 C   0  0  0  0  0  0  0  0  0  0  0  0
   -0.2400    0.0000    0.0000 C   0  0  0  0  0  0  0  0  0  0  0  0
   -1.0246    0.0000    0.0000 C   0  0  0  0  0  0  0  0  0  0  0  0
   -0.4726    0.0000    0.0000 C   0  0  0  0  0  0  0  0  0  0  0  0
    1.5272    0.0000    0.0000 C   0  0  0  0  0  0  0  0  0  0  0  0
    2.3522    0.0000    0.0000 C   0  0  0  0  0  0  0  0  0  0  0  0
    1.1147    0.0000    0.0000 C   0  0  0  0  0  0  0  0  0  0  0  0
  1  2  1  0      
  2  3  1  0      
  3  4  1  0      
  4  5  1  0      
  5  6  1  0      
  6  7  1  0      
  6  8  1  0      
  8  9  1  0      
  9 10  1  0      
 10 11  1  0      
 11 12  1  0      
 12 13  1  0      
 13 14  1  0      
 14 15  2  0      
 15 16  1  0      
 16 17  1  0      
 17 18  1  0      
 17 19  1  0      
 19 20  1  0      
 20 21  1  0      
 15 21  1  0      
 21 22  1  0      
 21 23  1  0      
 12 23  1  0      
 23 24  1  0      
 24 25  1  0      
 25 26  1  0      
  8 26  1  0      
 11 26  1  0      
 26 27  1  0      
  3 28  1  0      
 28 29  1  0      
 28 30  1  0      
M  END
>  <Bioactivity>
¦Â-Sitosterol is a common plant steroid that possesses anticholesteremic properties. ¦Â-Sitosterol has recently been shown to induce G2/M arrest,endoreduplication,and apoptosis through the Bcl-2 and P
I3K/Akt signaling pathways.

>  <CAS>
83-46-5

>  <Col>
7

>  <Formula>
C29H50O

>  <ID>
T2966

>  <Index>
556

>  <MOLENAME>
Beta-Sitosterol

>  <MolWt>
414.72

>  <Pathways>
Others

>  <Plate>
PLATE 007

>  <QR code>
1151479465

>  <Receptor>
Others

>  <Reference>
1. Wong HS, et al. PhytOthers Res. 2014 Jul;28(7):999-1006.

>  <Row>
H

>  <SMILES>
CCC(CCC(C)C1CCC2C3CC=C4CC(O)CCC4(C)C3CCC12C)C(C)C

>  <Target>
Others

>  <Weight>
10.1mg

$$$$
Lab-1.sdf
  ChemDraw05232018482D

 60 64  0  0  0  0  0  0  0  0999 V2000
    0.1571    0.0000    0.0000 N   0  0  0  0  0  0  0  0  0  0  0  0
    2.5142    0.0000    0.0000 N   0  0  0  0  0  0  0  0  0  0  0  0
    1.3854    0.0000    0.0000 C   0  0  0  0  0  0  0  0  0  0  0  0
    1.5286    0.0000    0.0000 C   0  0  0  0  0  0  0  0  0  0  0  0
    2.3039    0.0000    0.0000 C   0  0  0  0  0  0  0  0  0  0  0  0
    1.9411    0.0000    0.0000 C   0  0  0  0  0  0  0  0  0  0  0  0
    1.5286    0.0000    0.0000 C   0  0  0  0  0  0  0  0  0  0  0  0
    0.7036    0.0000    0.0000 C   0  0  0  0  0  0  0  0  0  0  0  0
    0.2911    0.0000    0.0000 C   0  0  0  0  0  0  0  0  0  0  0  0
   -0.1214    0.0000    0.0000 C   0  0  0  0  0  0  0  0  0  0  0  0
    0.7036    0.0000    0.0000 C   0  0  0  0  0  0  0  0  0  0  0  0
    0.2911    0.0000    0.0000 C   0  0  0  0  0  0  0  0  0  0  0  0
   -0.5339    0.0000    0.0000 C   0  0  0  0  0  0  0  0  0  0  0  0
   -0.9464    0.0000    0.0000 C   0  0  0  0  0  0  0  0  0  0  0  0
   -1.3589    0.0000    0.0000 C   0  0  0  0  0  0  0  0  0  0  0  0
   -0.5339    0.0000    0.0000 C   0  0  0  0  0  0  0  0  0  0  0  0
   -0.9464    0.0000    0.0000 C   0  0  0  0  0  0  0  0  0  0  0  0
   -0.5339    0.0000    0.0000 O   0  0  0  0  0  0  0  0  0  0  0  0
   -1.7714    0.0000    0.0000 C   0  0  0  0  0  0  0  0  0  0  0  0
   -2.1839    0.0000    0.0000 C   0  0  0  0  0  0  0  0  0  0  0  0
   -3.0089    0.0000    0.0000 C   0  0  0  0  0  0  0  0  0  0  0  0
   -3.4214    0.0000    0.0000 C   0  0  0  0  0  0  0  0  0  0  0  0
   -4.2464    0.0000    0.0000 C   0  0  0  0  0  0  0  0  0  0  0  0
   -4.1031    0.0000    0.0000 C   0  0  0  0  0  0  0  0  0  0  0  0
   -4.6589    0.0000    0.0000 C   0  0  0  0  0  0  0  0  0  0  0  0
   -4.2464    0.0000    0.0000 C   0  0  0  0  0  0  0  0  0  0  0  0
   -3.4214    0.0000    0.0000 C   0  0  0  0  0  0  0  0  0  0  0  0
   -3.8339    0.0000    0.0000 C   0  0  0  0  0  0  0  0  0  0  0  0
   -3.0089    0.0000    0.0000 C   0  0  0  0  0  0  0  0  0  0  0  0
   -2.1839    0.0000    0.0000 C   0  0  0  0  0  0  0  0  0  0  0  0
   -1.7714    0.0000    0.0000 C   0  0  0  0  0  0  0  0  0  0  0  0
   -1.8576    0.0000    0.0000 C   0  0  0  0  0  0  0  0  0  0  0  0
   -5.0216    0.0000    0.0000 C   0  0  0  0  0  0  0  0  0  0  0  0
   -5.1649    0.0000    0.0000 O   0  0  0  0  0  0  0  0  0  0  0  0
   -5.6536    0.0000    0.0000 O   0  0  0  0  0  0  0  0  0  0  0  0
    2.7661    0.0000    0.0000 O   0  0  0  0  0  0  0  0  0  0  0  0
    3.1786    0.0000    0.0000 C   0  0  0  0  0  0  0  0  0  0  0  0
    4.0036    0.0000    0.0000 O   0  0  0  0  0  0  0  0  0  0  0  0
    4.4161    0.0000    0.0000 C   0  0  0  0  0  0  0  0  0  0  0  0
    4.0036    0.0000    0.0000 C   0  0  0  0  0  0  0  0  0  0  0  0
    4.4161    0.0000    0.0000 O   0  0  0  0  0  0  0  0  0  0  0  0
    3.1786    0.0000    0.0000 C   0  0  0  0  0  0  0  0  0  0  0  0
    2.7661    0.0000    0.0000 O   0  0  0  0  0  0  0  0  0  0  0  0
    2.7661    0.0000    0.0000 C   0  0  0  0  0  0  0  0  0  0  0  0
    1.9411    0.0000    0.0000 O   0  0  0  0  0  0  0  0  0  0  0  0
    1.5286    0.0000    0.0000 C   0  0  0  0  0  0  0  0  0  0  0  0
    1.9411    0.0000    0.0000 O   0  0  0  0  0  0  0  0  0  0  0  0
    1.5286    0.0000    0.0000 C   0  0  0  0  0  0  0  0  0  0  0  0
    0.7036    0.0000    0.0000 C   0  0  0  0  0  0  0  0  0  0  0  0
    0.2911    0.0000    0.0000 O   0  0  0  0  0  0  0  0  0  0  0  0
    0.2911    0.0000    0.0000 C   0  0  0  0  0  0  0  0  0  0  0  0
   -0.5339    0.0000    0.0000 O   0  0  0  0  0  0  0  0  0  0  0  0
    0.7036    0.0000    0.0000 C   0  0  0  0  0  0  0  0  0  0  0  0
    0.2911    0.0000    0.0000 O   0  0  0  0  0  0  0  0  0  0  0  0
    1.9411    0.0000    0.0000 C   0  0  0  0  0  0  0  0  0  0  0  0
    1.5286    0.0000    0.0000 O   0  0  0  0  0  0  0  0  0  0  0  0
    2.7661    0.0000    0.0000 O   0  0  0  0  0  0  0  0  0  0  0  0
    5.2411    0.0000    0.0000 C   0  0  0  0  0  0  0  0  0  0  0  0
    5.6536    0.0000    0.0000 O   0  0  0  0  0  0  0  0  0  0  0  0
    5.6536    0.0000    0.0000 O   0  0  0  0  0  0  0  0  0  0  0  0
  3  4  1  0      
  4  5  1  0      
  4  6  1  0      
  6  7  1  0      
  7  8  1  0      
  8  9  1  0      
  9 10  1  0      
  9 11  1  0      
  4 11  1  0      
 11 12  1  0      
 12 13  1  0      
 13 14  1  0      
 14 15  1  0      
 14 16  1  0      
  9 16  1  0      
 16 17  1  0      
 17 18  2  0      
 17 19  1  0      
 19 20  2  0      
 20 21  1  0      
 21 22  1  0      
 22 23  1  0      
 23 24  1  0      
 23 25  1  0      
 25 26  1  0      
 26 27  1  0      
 21 27  1  0      
 27 28  1  0      
 27 29  1  0      
 29 30  1  0      
 30 31  1  0      
 14 31  1  0      
 20 31  1  0      
 31 32  1  0      
 23 33  1  0      
 33 34  1  0      
 33 35  2  0      
  6 36  1  0      
 36 37  1  0      
 37 38  1  0      
 38 39  1  0      
 39 40  1  0      
 40 41  1  0      
 40 42  1  0      
 42 43  1  0      
 42 44  1  0      
 37 44  1  0      
 44 45  1  0      
 45 46  1  0      
 46 47  1  0      
 47 48  1  0      
 48 49  1  0      
 49 50  1  0      
 49 51  1  0      
 51 52  1  0      
 51 53  1  0      
 46 53  1  0      
 53 54  1  0      
 48 55  1  0      
 55 56  1  0      
 55 57  2  0      
 39 58  1  0      
 58 59  1  0      
 58 60  2  0      
M  END
>  <Bioactivity>
Diammonium glycyrrhizinate is a widely used anti-inflammatory agent isolated from the licorice root. It is metabolized to GLYCYRRHETINIC ACID, which inhibits 11-BETA-HYDROXYSTEROID DEHYDROGENASES and 
other enzymes involved in the metabolism of CORTICOSTEROIDS. Therefore, glycyrrhizic acid, which is the main and sweet component of licorice, has been investigated for its ability to cause hyperminera
locorticoidism with sodium retention and potassium loss, edema, increased blood pressure, as well as depression of the renin-angiotensin-aldosterone system.

>  <CAS>
79165-06-3

>  <Col>
8

>  <Formula>
C42H62O16?2H3N

>  <ID>
T0522

>  <Index>
557

>  <MOLENAME>
Diammonium Glycyrrhizinate

>  <MolWt>
857

>  <Pathways>
Endocrinology/ Hormones

>  <Plate>
PLATE 007

>  <QR code>
1151479466

>  <Receptor>
11-beta-hydroxysteroid dehydrogenase

>  <Reference>
1. Jin J, et al. Food Chem Toxicol. 2014 Nov;73:95-104.

>  <Row>
H

>  <SMILES>
N.N.CC1(C)C(CCC2(C)C1CCC1(C)C2C(=O)C=C2C3CC(C)(CCC3(C)CCC12C)C(O)=O)OC1OC(C(O)C(O)C1OC1OC(C(O)C(O)C1O)C(O)=O)C(O)=O

>  <Target>
Corticosteroid receptor inhibitor

>  <Weight>
9.8mg

$$$$
Lab-1.sdf
  ChemDraw05232018482D

 26 32  0  0  0  0  0  0  0  0999 V2000
   -3.3334    0.0000    0.0000 C   0  0  0  0  0  0  0  0  0  0  0  0
   -2.5395    0.0000    0.0000 C   0  0  0  0  0  0  0  0  0  0  0  0
   -2.3369    0.0000    0.0000 C   0  0  0  0  0  0  0  0  0  0  0  0
   -1.9482    0.0000    0.0000 C   0  0  0  0  0  0  0  0  0  0  0  0
   -2.5236    0.0000    0.0000 O   0  0  0  0  0  0  0  0  0  0  0  0
   -1.7238    0.0000    0.0000 C   0  0  0  0  0  0  0  0  0  0  0  0
   -0.9241    0.0000    0.0000 C   0  0  0  0  0  0  0  0  0  0  0  0
   -0.1244    0.0000    0.0000 O   0  0  0  0  0  0  0  0  0  0  0  0
   -0.3488    0.0000    0.0000 C   0  0  0  0  0  0  0  0  0  0  0  0
   -0.5732    0.0000    0.0000 C   0  0  0  0  0  0  0  0  0  0  0  0
   -0.7976    0.0000    0.0000 O   0  0  0  0  0  0  0  0  0  0  0  0
    0.0022    0.0000    0.0000 C   0  0  0  0  0  0  0  0  0  0  0  0
    0.8018    0.0000    0.0000 C   0  0  0  0  0  0  0  0  0  0  0  0
    1.0262    0.0000    0.0000 C   0  0  0  0  0  0  0  0  0  0  0  0
    1.8259    0.0000    0.0000 C   0  0  0  0  0  0  0  0  0  0  0  0
    2.0503    0.0000    0.0000 C   0  0  0  0  0  0  0  0  0  0  0  0
    1.4750    0.0000    0.0000 C   0  0  0  0  0  0  0  0  0  0  0  0
    0.6753    0.0000    0.0000 C   0  0  0  0  0  0  0  0  0  0  0  0
    0.4509    0.0000    0.0000 C   0  0  0  0  0  0  0  0  0  0  0  0
    0.3329    0.0000    0.0000 C   0  0  0  0  0  0  0  0  0  0  0  0
    2.8747    0.0000    0.0000 C   0  0  0  0  0  0  0  0  0  0  0  0
    3.3334    0.0000    0.0000 O   0  0  0  0  0  0  0  0  0  0  0  0
    3.1598    0.0000    0.0000 O   0  0  0  0  0  0  0  0  0  0  0  0
    2.5116    0.0000    0.0000 C   0  0  0  0  0  0  0  0  0  0  0  0
   -1.3729    0.0000    0.0000 C   0  0  0  0  0  0  0  0  0  0  0  0
   -1.5973    0.0000    0.0000 O   0  0  0  0  0  0  0  0  0  0  0  0
  1  2  1  0      
  2  3  1  0      
  2  4  1  0      
  4  5  1  0      
  5  6  1  0      
  4  6  1  0      
  6  7  1  0      
  7  8  1  0      
  8  9  1  0      
  7  9  1  0      
  9 10  1  0      
 10 11  1  0      
 11 12  1  0      
 10 12  1  0      
 12 13  1  0      
 13 14  1  0      
 14 15  1  0      
 15 16  2  0      
 16 17  1  0      
 17 18  1  0      
 18 19  1  0      
  9 19  1  0      
 14 19  1  0      
 19 20  1  0      
 16 21  1  0      
 21 22  2  0      
 21 23  1  0      
 23 24  1  0      
 15 24  1  0      
 10 25  1  0      
  4 25  1  0      
 25 26  1  0      
M  END
>  <Bioactivity>
Triptolide is a diterpene triepoxide, immunosuppresive agent extracted from the Chinese herb Tripterygium wilfordii.

>  <CAS>
38748-32-2

>  <Col>
9

>  <Formula>
C20H24O6

>  <ID>
T2179

>  <Index>
558

>  <MOLENAME>
Triptolide (PG490)

>  <MolWt>
360.4

>  <Pathways>
Others

>  <Plate>
PLATE 007

>  <QR code>
1151479467

>  <Receptor>
Others

>  <Reference>
1. Qiu D, et al. J Biol Chem, 1999, 274(19), 13443-13450.

>  <Row>
H

>  <SMILES>
CC(C)C12OC1C1OC11C3(OC3CC3C4=C(CCC13C)C(=O)OC4)C2O

>  <Target>
Others

>  <Weight>
10.4mg

$$$$
Lab-1.sdf
  ChemDraw05232018482D

 34 38  0  0  0  0  0  0  0  0999 V2000
   -2.9754    0.0000    0.0000 C   0  0  0  0  0  0  0  0  0  0  0  0
   -3.1186    0.0000    0.0000 C   0  0  0  0  0  0  0  0  0  0  0  0
   -3.8939    0.0000    0.0000 C   0  0  0  0  0  0  0  0  0  0  0  0
   -3.5311    0.0000    0.0000 C   0  0  0  0  0  0  0  0  0  0  0  0
   -3.1186    0.0000    0.0000 C   0  0  0  0  0  0  0  0  0  0  0  0
   -2.2936    0.0000    0.0000 C   0  0  0  0  0  0  0  0  0  0  0  0
   -1.8811    0.0000    0.0000 C   0  0  0  0  0  0  0  0  0  0  0  0
   -2.2936    0.0000    0.0000 O   0  0  0  0  0  0  0  0  0  0  0  0
   -1.0561    0.0000    0.0000 C   0  0  0  0  0  0  0  0  0  0  0  0
   -0.6436    0.0000    0.0000 C   0  0  0  0  0  0  0  0  0  0  0  0
   -0.2311    0.0000    0.0000 C   0  0  0  0  0  0  0  0  0  0  0  0
   -1.0561    0.0000    0.0000 C   0  0  0  0  0  0  0  0  0  0  0  0
   -0.6436    0.0000    0.0000 C   0  0  0  0  0  0  0  0  0  0  0  0
    0.1814    0.0000    0.0000 C   0  0  0  0  0  0  0  0  0  0  0  0
    0.5939    0.0000    0.0000 C   0  0  0  0  0  0  0  0  0  0  0  0
    1.4189    0.0000    0.0000 C   0  0  0  0  0  0  0  0  0  0  0  0
    1.0064    0.0000    0.0000 C   0  0  0  0  0  0  0  0  0  0  0  0
    1.8314    0.0000    0.0000 C   0  0  0  0  0  0  0  0  0  0  0  0
    2.6564    0.0000    0.0000 C   0  0  0  0  0  0  0  0  0  0  0  0
    3.0689    0.0000    0.0000 C   0  0  0  0  0  0  0  0  0  0  0  0
    3.8939    0.0000    0.0000 O   0  0  0  0  0  0  0  0  0  0  0  0
    2.6564    0.0000    0.0000 C   0  0  0  0  0  0  0  0  0  0  0  0
    3.4316    0.0000    0.0000 C   0  0  0  0  0  0  0  0  0  0  0  0
    2.5131    0.0000    0.0000 C   0  0  0  0  0  0  0  0  0  0  0  0
    1.8314    0.0000    0.0000 C   0  0  0  0  0  0  0  0  0  0  0  0
    1.4189    0.0000    0.0000 C   0  0  0  0  0  0  0  0  0  0  0  0
    0.5939    0.0000    0.0000 C   0  0  0  0  0  0  0  0  0  0  0  0
    0.1814    0.0000    0.0000 C   0  0  0  0  0  0  0  0  0  0  0  0
    0.2676    0.0000    0.0000 C   0  0  0  0  0  0  0  0  0  0  0  0
   -1.8811    0.0000    0.0000 C   0  0  0  0  0  0  0  0  0  0  0  0
   -2.2936    0.0000    0.0000 C   0  0  0  0  0  0  0  0  0  0  0  0
   -2.7061    0.0000    0.0000 C   0  0  0  0  0  0  0  0  0  0  0  0
   -3.5311    0.0000    0.0000 O   0  0  0  0  0  0  0  0  0  0  0  0
   -2.7924    0.0000    0.0000 O   0  0  0  0  0  0  0  0  0  0  0  0
  1  2  1  0      
  2  3  1  0      
  2  4  1  0      
  4  5  1  0      
  5  6  1  0      
  6  7  1  0      
  7  8  1  0      
  7  9  1  0      
  9 10  1  0      
 10 11  1  0      
 10 12  1  0      
 12 13  2  0      
 13 14  1  0      
 14 15  1  0      
 15 16  1  0      
 16 17  1  0      
 16 18  1  0      
 18 19  1  0      
 19 20  1  0      
 20 21  1  0      
 20 22  1  0      
 22 23  1  0      
 22 24  1  0      
 22 25  1  0      
 16 25  1  0      
 25 26  1  0      
 26 27  1  0      
 27 28  1  0      
 10 28  1  0      
 15 28  1  0      
 28 29  1  0      
 12 30  1  0      
  6 30  1  0      
 30 31  1  0      
  2 31  1  0      
  6 32  1  0      
 32 33  1  0      
 32 34  2  0      
M  END
>  <Bioactivity>
Extracted from Albizzia julibrissin Durazz.;Store the product in sealed,cool and dry condition.

>  <CAS>
510-30-5

>  <Col>
10

>  <Formula>
C30H48O4

>  <ID>
T2866

>  <Index>
559

>  <MOLENAME>
Echinocystic acid

>  <MolWt>
472.7

>  <Pathways>
Others

>  <Plate>
PLATE 007

>  <QR code>
1151479468

>  <Receptor>
Others

>  <Reference>
1. Lai P, Liu Y. Life Sci. 2014 Oct 2;114(2):62-9. 

>  <Row>
H

>  <SMILES>
CC1(C)CCC2(C(O)CC3(C)C(=CCC4C5(C)CCC(O)C(C)(C)C5CCC34C)C2C1)C(O)=O

>  <Target>
Others

>  <Weight>
10.3mg

$$$$
Lab-1.sdf
  ChemDraw05232018482D

 46 51  0  0  0  0  0  0  0  0999 V2000
   -2.2687    0.0000    0.0000 C   0  0  0  0  0  0  0  0  0  0  0  0
   -1.8562    0.0000    0.0000 C   0  0  0  0  0  0  0  0  0  0  0  0
   -2.2687    0.0000    0.0000 C   0  0  0  0  0  0  0  0  0  0  0  0
   -1.8562    0.0000    0.0000 C   0  0  0  0  0  0  0  0  0  0  0  0
   -1.0313    0.0000    0.0000 C   0  0  0  0  0  0  0  0  0  0  0  0
   -0.6188    0.0000    0.0000 C   0  0  0  0  0  0  0  0  0  0  0  0
    0.2062    0.0000    0.0000 C   0  0  0  0  0  0  0  0  0  0  0  0
    0.6187    0.0000    0.0000 C   0  0  0  0  0  0  0  0  0  0  0  0
    1.0312    0.0000    0.0000 C   0  0  0  0  0  0  0  0  0  0  0  0
    0.2062    0.0000    0.0000 C   0  0  0  0  0  0  0  0  0  0  0  0
    0.6187    0.0000    0.0000 C   0  0  0  0  0  0  0  0  0  0  0  0
    1.4437    0.0000    0.0000 C   0  0  0  0  0  0  0  0  0  0  0  0
    1.8562    0.0000    0.0000 C   0  0  0  0  0  0  0  0  0  0  0  0
    2.6812    0.0000    0.0000 C   0  0  0  0  0  0  0  0  0  0  0  0
    2.2687    0.0000    0.0000 C   0  0  0  0  0  0  0  0  0  0  0  0
    3.0937    0.0000    0.0000 C   0  0  0  0  0  0  0  0  0  0  0  0
    3.9187    0.0000    0.0000 C   0  0  0  0  0  0  0  0  0  0  0  0
    4.3312    0.0000    0.0000 C   0  0  0  0  0  0  0  0  0  0  0  0
    5.1562    0.0000    0.0000 O   0  0  0  0  0  0  0  0  0  0  0  0
    3.9187    0.0000    0.0000 C   0  0  0  0  0  0  0  0  0  0  0  0
    3.7754    0.0000    0.0000 C   0  0  0  0  0  0  0  0  0  0  0  0
    4.6939    0.0000    0.0000 C   0  0  0  0  0  0  0  0  0  0  0  0
    4.8372    0.0000    0.0000 O   0  0  0  0  0  0  0  0  0  0  0  0
    3.0937    0.0000    0.0000 C   0  0  0  0  0  0  0  0  0  0  0  0
    2.6812    0.0000    0.0000 C   0  0  0  0  0  0  0  0  0  0  0  0
    1.8562    0.0000    0.0000 C   0  0  0  0  0  0  0  0  0  0  0  0
    1.4437    0.0000    0.0000 C   0  0  0  0  0  0  0  0  0  0  0  0
    1.5299    0.0000    0.0000 C   0  0  0  0  0  0  0  0  0  0  0  0
   -0.6188    0.0000    0.0000 C   0  0  0  0  0  0  0  0  0  0  0  0
   -1.0313    0.0000    0.0000 C   0  0  0  0  0  0  0  0  0  0  0  0
   -1.0025    0.0000    0.0000 C   0  0  0  0  0  0  0  0  0  0  0  0
   -0.3317    0.0000    0.0000 O   0  0  0  0  0  0  0  0  0  0  0  0
   -1.4437    0.0000    0.0000 C   0  0  0  0  0  0  0  0  0  0  0  0
   -1.0313    0.0000    0.0000 O   0  0  0  0  0  0  0  0  0  0  0  0
   -2.2687    0.0000    0.0000 O   0  0  0  0  0  0  0  0  0  0  0  0
   -2.6812    0.0000    0.0000 C   0  0  0  0  0  0  0  0  0  0  0  0
   -3.5062    0.0000    0.0000 O   0  0  0  0  0  0  0  0  0  0  0  0
   -3.9187    0.0000    0.0000 C   0  0  0  0  0  0  0  0  0  0  0  0
   -4.7437    0.0000    0.0000 C   0  0  0  0  0  0  0  0  0  0  0  0
   -5.1562    0.0000    0.0000 O   0  0  0  0  0  0  0  0  0  0  0  0
   -3.5062    0.0000    0.0000 C   0  0  0  0  0  0  0  0  0  0  0  0
   -3.9187    0.0000    0.0000 O   0  0  0  0  0  0  0  0  0  0  0  0
   -2.6812    0.0000    0.0000 C   0  0  0  0  0  0  0  0  0  0  0  0
   -2.2687    0.0000    0.0000 O   0  0  0  0  0  0  0  0  0  0  0  0
   -2.2687    0.0000    0.0000 C   0  0  0  0  0  0  0  0  0  0  0  0
   -1.4437    0.0000    0.0000 O   0  0  0  0  0  0  0  0  0  0  0  0
  1  2  1  0      
  2  3  1  0      
  3  4  1  0      
  4  5  1  0      
  5  6  1  0      
  6  7  1  0      
  7  8  1  0      
  8  9  1  0      
  8 10  1  0      
 10 11  2  0      
 11 12  1  0      
 12 13  1  0      
 13 14  1  0      
 14 15  1  0      
 14 16  1  0      
 16 17  1  0      
 17 18  1  0      
 18 19  1  0      
 18 20  1  0      
 20 21  1  0      
 20 22  1  0      
 22 23  1  0      
 20 24  1  0      
 14 24  1  0      
 24 25  1  0      
 25 26  1  0      
 26 27  1  0      
  8 27  1  0      
 13 27  1  0      
 27 28  1  0      
 10 29  1  0      
  5 29  1  0      
 29 30  1  0      
  2 30  1  0      
 30 31  1  0      
 30 32  1  0      
  5 33  1  0      
 33 34  2  0      
 33 35  1  0      
 35 36  1  0      
 36 37  1  0      
 37 38  1  0      
 38 39  1  0      
 39 40  1  0      
 38 41  1  0      
 41 42  1  0      
 41 43  1  0      
 43 44  1  0      
 43 45  1  0      
 36 45  1  0      
 45 46  1  0      
M  END
>  <Bioactivity>
Extracted from Ilex rotunda Thunb. barks;Store the product in sealed, cool and dry condition.

>  <CAS>
42719-32-4

>  <Col>
11

>  <Formula>
C36H58O10

>  <ID>
T2824

>  <Index>
560

>  <MOLENAME>
Pedunculoside

>  <MolWt>
650.84

>  <Pathways>
Others

>  <Plate>
PLATE 007

>  <QR code>
1151479469

>  <Receptor>
Others

>  <Reference>
1. Zhao W, et al. Molecules. 2015 May 19;20(5):9084-98.

>  <Row>
H

>  <SMILES>
CC1CCC2(CCC3(C)C(=CCC4C5(C)CCC(O)C(C)(CO)C5CCC34C)C2C1(C)O)C(=O)OC1OC(CO)C(O)C(O)C1O

>  <Target>
Others

>  <Weight>
10.4mg

$$$$
Lab-1.sdf
  ChemDraw05232018482D

 32 36  0  0  0  0  0  0  0  0999 V2000
   -1.5890    0.0000    0.0000 C   0  0  0  0  0  0  0  0  0  0  0  0
   -2.3774    0.0000    0.0000 C   0  0  0  0  0  0  0  0  0  0  0  0
   -2.9820    0.0000    0.0000 C   0  0  0  0  0  0  0  0  0  0  0  0
   -2.5611    0.0000    0.0000 C   0  0  0  0  0  0  0  0  0  0  0  0
   -3.3198    0.0000    0.0000 C   0  0  0  0  0  0  0  0  0  0  0  0
   -3.2461    0.0000    0.0000 C   0  0  0  0  0  0  0  0  0  0  0  0
   -2.4418    0.0000    0.0000 C   0  0  0  0  0  0  0  0  0  0  0  0
   -2.9368    0.0000    0.0000 C   0  0  0  0  0  0  0  0  0  0  0  0
   -3.7559    0.0000    0.0000 O   0  0  0  0  0  0  0  0  0  0  0  0
   -2.0402    0.0000    0.0000 C   0  0  0  0  0  0  0  0  0  0  0  0
   -1.2153    0.0000    0.0000 C   0  0  0  0  0  0  0  0  0  0  0  0
   -0.7920    0.0000    0.0000 C   0  0  0  0  0  0  0  0  0  0  0  0
   -0.3904    0.0000    0.0000 C   0  0  0  0  0  0  0  0  0  0  0  0
   -1.1936    0.0000    0.0000 C   0  0  0  0  0  0  0  0  0  0  0  0
   -0.7703    0.0000    0.0000 C   0  0  0  0  0  0  0  0  0  0  0  0
    0.0546    0.0000    0.0000 C   0  0  0  0  0  0  0  0  0  0  0  0
    0.4563    0.0000    0.0000 C   0  0  0  0  0  0  0  0  0  0  0  0
    1.2812    0.0000    0.0000 C   0  0  0  0  0  0  0  0  0  0  0  0
    0.8796    0.0000    0.0000 C   0  0  0  0  0  0  0  0  0  0  0  0
    1.7045    0.0000    0.0000 C   0  0  0  0  0  0  0  0  0  0  0  0
    2.5294    0.0000    0.0000 C   0  0  0  0  0  0  0  0  0  0  0  0
    2.9310    0.0000    0.0000 C   0  0  0  0  0  0  0  0  0  0  0  0
    3.7559    0.0000    0.0000 O   0  0  0  0  0  0  0  0  0  0  0  0
    2.5077    0.0000    0.0000 C   0  0  0  0  0  0  0  0  0  0  0  0
    3.2786    0.0000    0.0000 C   0  0  0  0  0  0  0  0  0  0  0  0
    2.3521    0.0000    0.0000 C   0  0  0  0  0  0  0  0  0  0  0  0
    1.6828    0.0000    0.0000 C   0  0  0  0  0  0  0  0  0  0  0  0
    1.2595    0.0000    0.0000 C   0  0  0  0  0  0  0  0  0  0  0  0
    0.4346    0.0000    0.0000 C   0  0  0  0  0  0  0  0  0  0  0  0
    0.0329    0.0000    0.0000 C   0  0  0  0  0  0  0  0  0  0  0  0
    0.1066    0.0000    0.0000 C   0  0  0  0  0  0  0  0  0  0  0  0
   -2.0185    0.0000    0.0000 C   0  0  0  0  0  0  0  0  0  0  0  0
  1  2  1  0      
  2  3  2  0      
  2  4  1  0      
  4  5  1  0      
  5  6  1  0      
  6  7  1  0      
  7  8  1  0      
  8  9  1  0      
  7 10  1  0      
 10 11  1  0      
 11 12  1  0      
 12 13  1  0      
 12 14  1  0      
 14 15  1  0      
 15 16  1  0      
 16 17  1  0      
 17 18  1  0      
 18 19  1  0      
 18 20  1  0      
 20 21  1  0      
 21 22  1  0      
 22 23  1  0      
 22 24  1  0      
 24 25  1  0      
 24 26  1  0      
 24 27  1  0      
 18 27  1  0      
 27 28  1  0      
 28 29  1  0      
 29 30  1  0      
 12 30  1  0      
 17 30  1  0      
 30 31  1  0      
 14 32  1  0      
  4 32  1  0      
  7 32  1  0      
M  END
>  <Bioactivity>
Betulin (lup-20(29)-ene-3¦Â,28-diol) is an abundant, naturally occurring triterpene. It is commonly isolated from the bark of birch trees where it forms up to 30% of the dry weight of the extractive a
nd is found in birch sap as well.

>  <CAS>
473-98-3

>  <Col>
2

>  <Formula>
C30H50O2

>  <ID>
T3121

>  <Index>
561

>  <MOLENAME>
Betulin

>  <MolWt>
442.72

>  <Pathways>
Others

>  <Plate>
PLATE 008

>  <QR code>
1151480513

>  <Receptor>
Others

>  <Reference>
1. Zhao H, et al. Life Sci. 2016 Jan 1;144:185-93.

>  <Row>
A

>  <SMILES>
CC(=C)C1CCC2(CO)CCC3(C)C(CCC4C5(C)CCC(O)C(C)(C)C5CCC34C)C12

>  <Target>
Others

>  <Weight>
10.3mg

$$$$
Lab-1.sdf
  ChemDraw05232018482D

 45 51  0  0  0  0  0  0  0  0999 V2000
    3.8970    0.0000    0.0000 C   0  0  0  0  0  0  0  0  0  0  0  0
    3.0886    0.0000    0.0000 O   0  0  0  0  0  0  0  0  0  0  0  0
    2.7301    0.0000    0.0000 C   0  0  0  0  0  0  0  0  0  0  0  0
    1.9044    0.0000    0.0000 C   0  0  0  0  0  0  0  0  0  0  0  0
    1.3639    0.0000    0.0000 O   0  0  0  0  0  0  0  0  0  0  0  0
    0.5927    0.0000    0.0000 C   0  0  0  0  0  0  0  0  0  0  0  0
    0.2677    0.0000    0.0000 C   0  0  0  0  0  0  0  0  0  0  0  0
   -0.5344    0.0000    0.0000 C   0  0  0  0  0  0  0  0  0  0  0  0
   -1.0778    0.0000    0.0000 C   0  0  0  0  0  0  0  0  0  0  0  0
   -1.7562    0.0000    0.0000 C   0  0  0  0  0  0  0  0  0  0  0  0
   -2.4326    0.0000    0.0000 C   0  0  0  0  0  0  0  0  0  0  0  0
   -3.1486    0.0000    0.0000 N   0  0  0  0  0  0  0  0  0  0  0  0
   -3.1344    0.0000    0.0000 C   0  0  0  0  0  0  0  0  0  0  0  0
   -3.8713    0.0000    0.0000 C   0  0  0  0  0  0  0  0  0  0  0  0
   -3.8970    0.0000    0.0000 C   0  0  0  0  0  0  0  0  0  0  0  0
   -3.2016    0.0000    0.0000 C   0  0  0  0  0  0  0  0  0  0  0  0
   -3.2644    0.0000    0.0000 C   0  0  0  0  0  0  0  0  0  0  0  0
   -2.5803    0.0000    0.0000 C   0  0  0  0  0  0  0  0  0  0  0  0
   -2.6520    0.0000    0.0000 O   0  0  0  0  0  0  0  0  0  0  0  0
   -3.3867    0.0000    0.0000 C   0  0  0  0  0  0  0  0  0  0  0  0
   -1.8174    0.0000    0.0000 C   0  0  0  0  0  0  0  0  0  0  0  0
   -1.0417    0.0000    0.0000 O   0  0  0  0  0  0  0  0  0  0  0  0
   -0.3740    0.0000    0.0000 C   0  0  0  0  0  0  0  0  0  0  0  0
    0.4779    0.0000    0.0000 C   0  0  0  0  0  0  0  0  0  0  0  0
    1.1292    0.0000    0.0000 C   0  0  0  0  0  0  0  0  0  0  0  0
    1.4438    0.0000    0.0000 C   0  0  0  0  0  0  0  0  0  0  0  0
    2.0087    0.0000    0.0000 C   0  0  0  0  0  0  0  0  0  0  0  0
    2.8374    0.0000    0.0000 C   0  0  0  0  0  0  0  0  0  0  0  0
    3.2000    0.0000    0.0000 C   0  0  0  0  0  0  0  0  0  0  0  0
    1.5822    0.0000    0.0000 C   0  0  0  0  0  0  0  0  0  0  0  0
    1.9069    0.0000    0.0000 N   0  0  0  0  0  0  0  0  0  0  0  0
    2.5175    0.0000    0.0000 C   0  0  0  0  0  0  0  0  0  0  0  0
    2.0835    0.0000    0.0000 C   0  0  0  0  0  0  0  0  0  0  0  0
    1.4850    0.0000    0.0000 C   0  0  0  0  0  0  0  0  0  0  0  0
    0.7018    0.0000    0.0000 C   0  0  0  0  0  0  0  0  0  0  0  0
    0.1620    0.0000    0.0000 C   0  0  0  0  0  0  0  0  0  0  0  0
   -0.6341    0.0000    0.0000 C   0  0  0  0  0  0  0  0  0  0  0  0
   -1.1654    0.0000    0.0000 O   0  0  0  0  0  0  0  0  0  0  0  0
   -1.9607    0.0000    0.0000 C   0  0  0  0  0  0  0  0  0  0  0  0
   -0.8957    0.0000    0.0000 C   0  0  0  0  0  0  0  0  0  0  0  0
   -1.6933    0.0000    0.0000 O   0  0  0  0  0  0  0  0  0  0  0  0
   -1.7872    0.0000    0.0000 C   0  0  0  0  0  0  0  0  0  0  0  0
   -2.4614    0.0000    0.0000 C   0  0  0  0  0  0  0  0  0  0  0  0
   -0.7510    0.0000    0.0000 C   0  0  0  0  0  0  0  0  0  0  0  0
    0.0653    0.0000    0.0000 C   0  0  0  0  0  0  0  0  0  0  0  0
  1  2  1  0      
  2  3  1  0      
  3  4  2  0      
  4  5  1  0      
  5  6  1  0      
  6  7  2  0      
  7  8  1  0      
  8  9  2  0      
  9 10  1  0      
 10 11  1  0      
 11 12  1  0      
 12 13  1  0      
 12 14  1  0      
 14 15  1  0      
 15 16  1  0      
 16 17  2  0      
 17 18  1  0      
 18 19  1  0      
 19 20  1  0      
 18 21  2  0      
 21 22  1  0      
 22 23  1  0      
 23 24  2  0      
 24 25  1  0      
 25 26  1  0      
 26 27  1  0      
 27 28  1  0      
 28 29  2  0      
  3 29  1  0      
 27 30  2  0      
  4 30  1  0      
 25 31  1  0      
 31 32  1  0      
 31 33  1  0      
 33 34  1  0      
 34 35  1  0      
 24 35  1  0      
 35 36  2  0      
 36 37  1  0      
 37 38  1  0      
 38 39  1  0      
 37 40  2  0      
 23 40  1  0      
 40 41  1  0      
 21 42  1  0      
 42 43  2  0      
 11 43  1  0      
 16 43  1  0      
  9 44  1  0      
 44 45  2  0      
  6 45  1  0      
M  END
>  <Bioactivity>
Extracted from Stephania tetrandra S. Moore;Store the product in sealed,cool and dry condition

>  <CAS>
436-77-1

>  <Col>
3

>  <Formula>
C37H40N2O6

>  <ID>
T3122

>  <Index>
562

>  <MOLENAME>
(+)-Fangchinoline

>  <MolWt>
608.72

>  <Pathways>
Angiogenesis

>  <Plate>
PLATE 008

>  <QR code>
1151480512

>  <Receptor>
FAK

>  <Reference>
1. Guo B, et al. J Drug Target. 2015 Apr;23(3):266-74. 

>  <Row>
A

>  <SMILES>
COC1=C2OC3=CC=C(CC4N(C)CCC5=CC(OC)=C(OC6=C7C(CC(C=C1)=C2)N(C)CCC7=CC(OC)=C6O)C=C45)C=C3

>  <Target>
FAK inhibitor

>  <Weight>
10.3mg

$$$$
Lab-1.sdf
  ChemDraw05232018482D

 43 49  0  0  0  0  0  0  0  0999 V2000
   -1.7745    0.0000    0.0000 C   0  0  0  0  0  0  0  0  0  0  0  0
   -1.2225    0.0000    0.0000 C   0  0  0  0  0  0  0  0  0  0  0  0
   -1.4774    0.0000    0.0000 C   0  0  0  0  0  0  0  0  0  0  0  0
   -0.9254    0.0000    0.0000 C   0  0  0  0  0  0  0  0  0  0  0  0
   -0.1184    0.0000    0.0000 C   0  0  0  0  0  0  0  0  0  0  0  0
    0.4336    0.0000    0.0000 C   0  0  0  0  0  0  0  0  0  0  0  0
    1.2406    0.0000    0.0000 O   0  0  0  0  0  0  0  0  0  0  0  0
    1.7926    0.0000    0.0000 C   0  0  0  0  0  0  0  0  0  0  0  0
    1.5377    0.0000    0.0000 O   0  0  0  0  0  0  0  0  0  0  0  0
    2.5997    0.0000    0.0000 N   0  0  0  0  0  0  0  0  0  0  0  0
    3.1517    0.0000    0.0000 C   0  0  0  0  0  0  0  0  0  0  0  0
    3.9587    0.0000    0.0000 C   0  0  0  0  0  0  0  0  0  0  0  0
    4.2136    0.0000    0.0000 C   0  0  0  0  0  0  0  0  0  0  0  0
    3.6616    0.0000    0.0000 C   0  0  0  0  0  0  0  0  0  0  0  0
    2.8546    0.0000    0.0000 C   0  0  0  0  0  0  0  0  0  0  0  0
    5.0206    0.0000    0.0000 N   0  0  0  0  0  0  0  0  0  0  0  0
    5.5726    0.0000    0.0000 C   0  0  0  0  0  0  0  0  0  0  0  0
    6.3796    0.0000    0.0000 C   0  0  0  0  0  0  0  0  0  0  0  0
    6.6345    0.0000    0.0000 C   0  0  0  0  0  0  0  0  0  0  0  0
    6.0825    0.0000    0.0000 C   0  0  0  0  0  0  0  0  0  0  0  0
    5.2755    0.0000    0.0000 C   0  0  0  0  0  0  0  0  0  0  0  0
    0.1787    0.0000    0.0000 C   0  0  0  0  0  0  0  0  0  0  0  0
   -0.6283    0.0000    0.0000 C   0  0  0  0  0  0  0  0  0  0  0  0
   -1.1803    0.0000    0.0000 C   0  0  0  0  0  0  0  0  0  0  0  0
   -1.9873    0.0000    0.0000 N   0  0  0  0  0  0  0  0  0  0  0  0
   -2.5395    0.0000    0.0000 C   0  0  0  0  0  0  0  0  0  0  0  0
   -2.2844    0.0000    0.0000 C   0  0  0  0  0  0  0  0  0  0  0  0
   -2.9520    0.0000    0.0000 C   0  0  0  0  0  0  0  0  0  0  0  0
   -3.6194    0.0000    0.0000 N   0  0  0  0  0  0  0  0  0  0  0  0
   -3.3645    0.0000    0.0000 C   0  0  0  0  0  0  0  0  0  0  0  0
   -3.9165    0.0000    0.0000 C   0  0  0  0  0  0  0  0  0  0  0  0
   -4.7235    0.0000    0.0000 C   0  0  0  0  0  0  0  0  0  0  0  0
   -4.9784    0.0000    0.0000 C   0  0  0  0  0  0  0  0  0  0  0  0
   -5.7854    0.0000    0.0000 C   0  0  0  0  0  0  0  0  0  0  0  0
   -6.3374    0.0000    0.0000 O   0  0  0  0  0  0  0  0  0  0  0  0
   -6.0825    0.0000    0.0000 C   0  0  0  0  0  0  0  0  0  0  0  0
   -6.6345    0.0000    0.0000 O   0  0  0  0  0  0  0  0  0  0  0  0
   -5.2755    0.0000    0.0000 C   0  0  0  0  0  0  0  0  0  0  0  0
   -5.4187    0.0000    0.0000 O   0  0  0  0  0  0  0  0  0  0  0  0
   -4.6820    0.0000    0.0000 C   0  0  0  0  0  0  0  0  0  0  0  0
   -3.8890    0.0000    0.0000 C   0  0  0  0  0  0  0  0  0  0  0  0
   -4.4264    0.0000    0.0000 C   0  0  0  0  0  0  0  0  0  0  0  0
   -4.6813    0.0000    0.0000 O   0  0  0  0  0  0  0  0  0  0  0  0
  1  2  1  0      
  2  3  1  0      
  3  4  2  0      
  4  5  1  0      
  5  6  2  0      
  6  7  1  0      
  7  8  1  0      
  8  9  2  0      
  8 10  1  0      
 10 11  1  0      
 11 12  1  0      
 12 13  1  0      
 13 14  1  0      
 14 15  1  0      
 10 15  1  0      
 13 16  1  0      
 16 17  1  0      
 17 18  1  0      
 18 19  1  0      
 19 20  1  0      
 20 21  1  0      
 16 21  1  0      
  6 22  1  0      
 22 23  2  0      
 23 24  1  0      
  4 24  1  0      
 24 25  2  0      
 25 26  1  0      
 26 27  2  0      
  3 27  1  0      
 27 28  1  0      
 28 29  1  0      
 29 30  1  0      
 26 30  1  0      
 30 31  2  0      
 31 32  1  0      
 32 33  2  0      
 33 34  1  0      
 34 35  1  0      
 35 36  1  0      
 36 37  2  0      
 36 38  1  0      
 32 38  1  0      
 38 39  1  0      
 38 40  1  0      
 40 41  1  0      
 33 42  1  0      
 29 42  1  0      
 42 43  2  0      
M  END
>  <Bioactivity>
Irinotecan is a topoisomerase I inhibitor for LoVo cells and HT-29 cells with IC50 of 15.8 ¦ÌM and 5.17 ¦ÌM, respectively.

>  <CAS>
97682-44-5

>  <Col>
4

>  <Formula>
C33H38N4O6

>  <ID>
T6228

>  <Index>
563

>  <MOLENAME>
Irinotecan

>  <MolWt>
586.68

>  <Pathways>
DNA Damage/DNA Repair

>  <Plate>
PLATE 008

>  <QR code>
1151480511

>  <Receptor>
Topo I

>  <Reference>
1. Pavillard V, et al. Y ChemOthers Pharmacol. 2002, 49(4), 329-335.

>  <Row>
A

>  <SMILES>
CCC1=C2C=C(OC(=O)N3CCC(CC3)N3CCCCC3)C=CC2=NC2=C1CN1C2=CC2=C(COC(=O)C2(O)CC)C1=O

>  <Target>
Topoisomerase inhibitor

>  <Weight>
10.1mg

$$$$
Lab-1.sdf
  ChemDraw05232018482D

 10 10  0  0  0  0  0  0  0  0999 V2000
   -0.7144    0.0000    0.0000 N   0  0  0  0  0  0  0  0  0  0  0  0
   -0.7144    0.0000    0.0000 C   0  0  0  0  0  0  0  0  0  0  0  0
    0.0001    0.0000    0.0000 C   0  0  0  0  0  0  0  0  0  0  0  0
    0.0001    0.0000    0.0000 C   0  0  0  0  0  0  0  0  0  0  0  0
    0.7144    0.0000    0.0000 C   0  0  0  0  0  0  0  0  0  0  0  0
    0.7144    0.0000    0.0000 C   0  0  0  0  0  0  0  0  0  0  0  0
    0.0001    0.0000    0.0000 C   0  0  0  0  0  0  0  0  0  0  0  0
    0.0001    0.0000    0.0000 O   0  0  0  0  0  0  0  0  0  0  0  0
   -0.7144    0.0000    0.0000 C   0  0  0  0  0  0  0  0  0  0  0  0
   -0.7144    0.0000    0.0000 C   0  0  0  0  0  0  0  0  0  0  0  0
  1  2  1  0      
  2  3  1  0      
  3  4  1  0      
  4  5  2  0      
  5  6  1  0      
  6  7  2  0      
  7  8  1  0      
  7  9  1  0      
  9 10  2  0      
  4 10  1  0      
M  END
>  <Bioactivity>
Tyramine acts as a catecholamine releasing agent. Notably, it is unable to cross the blood-brain barrier, resulting in only nonpsychoactive peripheral sympathomimetic effects. A hypertensive crisis ca
n result, however, from ingestion of tyramine-rich foods in conjunction with monoamine oxidase inhibitors (MAOIs)

>  <CAS>
51-67-2

>  <Col>
5

>  <Formula>
C8H11NO

>  <ID>
T3095

>  <Index>
564

>  <MOLENAME>
Tyramine

>  <MolWt>
137.18

>  <Pathways>
Metabolism

>  <Plate>
PLATE 008

>  <QR code>
1151480510

>  <Receptor>
MAOs

>  <Reference>
1. Grundemann D, et al. Nat Neurosci. 1998 Sep;1(5):349-51. 

>  <Row>
A

>  <SMILES>
NCCC1=CC=C(O)C=C1

>  <Target>
MAO inhibitor

>  <Weight>
10.4mg

$$$$
Lab-1.sdf
  ChemDraw05232018482D

 92 97  0  0  0  0  0  0  0  0999 V2000
   -7.3952    0.0000    0.0000 C   0  5  0  0  0  0  0  0  0  0  0  0
    1.2055    0.0000    0.0000 Co  0  1  0  0  0  0  0  0  0  0  0  0
    1.5116    0.0000    0.0000 C   0  0  0  0  0  0  0  0  0  0  0  0
    2.2653    0.0000    0.0000 C   0  0  0  0  0  0  0  0  0  0  0  0
    2.3515    0.0000    0.0000 C   0  0  0  0  0  0  0  0  0  0  0  0
    1.6841    0.0000    0.0000 N   0  0  0  0  0  0  0  0  0  0  0  0
    1.7703    0.0000    0.0000 C   0  0  0  0  0  0  0  0  0  0  0  0
    2.5240    0.0000    0.0000 O   0  0  0  0  0  0  0  0  0  0  0  0
    1.1029    0.0000    0.0000 C   0  0  0  0  0  0  0  0  0  0  0  0
    1.1891    0.0000    0.0000 C   0  0  0  0  0  0  0  0  0  0  0  0
    0.5217    0.0000    0.0000 C   0  0  0  0  0  0  0  0  0  0  0  0
    0.1092    0.0000    0.0000 C   0  0  0  0  0  0  0  0  0  0  0  0
    1.0737    0.0000    0.0000 C   0  0  0  0  0  0  0  0  0  0  0  0
    1.8942    0.0000    0.0000 C   0  0  0  0  0  0  0  0  0  0  0  0
    2.2297    0.0000    0.0000 C   0  0  0  0  0  0  0  0  0  0  0  0
    3.0501    0.0000    0.0000 N   0  0  0  0  0  0  0  0  0  0  0  0
    1.7448    0.0000    0.0000 O   0  0  0  0  0  0  0  0  0  0  0  0
    0.6612    0.0000    0.0000 C   0  0  0  0  0  0  0  0  0  0  0  0
   -0.1458    0.0000    0.0000 N   0  0  0  0  0  0  0  0  0  0  0  0
   -0.2320    0.0000    0.0000 C   0  0  0  0  0  0  0  0  0  0  0  0
   -1.2257    0.0000    0.0000 C   0  0  0  0  0  0  0  0  0  0  0  0
   -1.1619    0.0000    0.0000 C   0  0  0  0  0  0  0  0  0  0  0  0
   -2.0327    0.0000    0.0000 C   0  0  0  0  0  0  0  0  0  0  0  0
   -2.1189    0.0000    0.0000 N   0  0  0  0  0  0  0  0  0  0  0  0
   -2.9258    0.0000    0.0000 C   0  0  0  0  0  0  0  0  0  0  0  0
   -3.1988    0.0000    0.0000 C   0  0  0  0  0  0  0  0  0  0  0  0
   -2.9438    0.0000    0.0000 C   0  0  0  0  0  0  0  0  0  0  0  0
   -2.1189    0.0000    0.0000 N   0  0  0  0  0  0  0  0  0  0  0  0
   -1.8640    0.0000    0.0000 C   0  0  0  0  0  0  0  0  0  0  0  0
   -0.8132    0.0000    0.0000 C   0  0  0  0  0  0  0  0  0  0  0  0
   -0.7046    0.0000    0.0000 C   0  0  0  0  0  0  0  0  0  0  0  0
   -0.0596    0.0000    0.0000 C   0  0  0  0  0  0  0  0  0  0  0  0
   -0.1458    0.0000    0.0000 N   0  5  0  0  0  0  0  0  0  0  0  0
    0.6079    0.0000    0.0000 C   0  0  0  0  0  0  0  0  0  0  0  0
    1.3853    0.0000    0.0000 C   0  0  0  0  0  0  0  0  0  0  0  0
    1.1599    0.0000    0.0000 C   0  0  0  0  0  0  0  0  0  0  0  0
    1.7120    0.0000    0.0000 C   0  0  0  0  0  0  0  0  0  0  0  0
    1.8274    0.0000    0.0000 C   0  0  0  0  0  0  0  0  0  0  0  0
    2.5810    0.0000    0.0000 C   0  0  0  0  0  0  0  0  0  0  0  0
    3.2484    0.0000    0.0000 N   0  0  0  0  0  0  0  0  0  0  0  0
    2.6673    0.0000    0.0000 O   0  0  0  0  0  0  0  0  0  0  0  0
    0.7474    0.0000    0.0000 C   0  0  0  0  0  0  0  0  0  0  0  0
    1.0830    0.0000    0.0000 C   0  0  0  0  0  0  0  0  0  0  0  0
    0.5981    0.0000    0.0000 C   0  0  0  0  0  0  0  0  0  0  0  0
    0.9336    0.0000    0.0000 C   0  0  0  0  0  0  0  0  0  0  0  0
    1.7541    0.0000    0.0000 N   0  0  0  0  0  0  0  0  0  0  0  0
    0.4487    0.0000    0.0000 O   0  0  0  0  0  0  0  0  0  0  0  0
   -2.5314    0.0000    0.0000 C   0  0  0  0  0  0  0  0  0  0  0  0
   -1.9794    0.0000    0.0000 C   0  0  0  0  0  0  0  0  0  0  0  0
   -3.0834    0.0000    0.0000 C   0  0  0  0  0  0  0  0  0  0  0  0
   -2.8284    0.0000    0.0000 C   0  0  0  0  0  0  0  0  0  0  0  0
   -3.3805    0.0000    0.0000 N   0  0  0  0  0  0  0  0  0  0  0  0
   -2.0216    0.0000    0.0000 O   0  0  0  0  0  0  0  0  0  0  0  0
   -3.1988    0.0000    0.0000 C   0  0  0  0  0  0  0  0  0  0  0  0
   -3.9834    0.0000    0.0000 C   0  0  0  0  0  0  0  0  0  0  0  0
   -4.5965    0.0000    0.0000 C   0  0  0  0  0  0  0  0  0  0  0  0
   -4.4250    0.0000    0.0000 C   0  0  0  0  0  0  0  0  0  0  0  0
   -5.0381    0.0000    0.0000 N   0  0  0  0  0  0  0  0  0  0  0  0
   -3.6403    0.0000    0.0000 O   0  0  0  0  0  0  0  0  0  0  0  0
   -3.3383    0.0000    0.0000 C   0  0  0  0  0  0  0  0  0  0  0  0
   -3.8903    0.0000    0.0000 C   0  0  0  0  0  0  0  0  0  0  0  0
   -4.0057    0.0000    0.0000 C   0  0  0  0  0  0  0  0  0  0  0  0
   -2.7863    0.0000    0.0000 C   0  0  0  0  0  0  0  0  0  0  0  0
   -2.9578    0.0000    0.0000 C   0  0  0  0  0  0  0  0  0  0  0  0
   -3.7424    0.0000    0.0000 C   0  0  0  0  0  0  0  0  0  0  0  0
   -3.9139    0.0000    0.0000 C   0  0  0  0  0  0  0  0  0  0  0  0
   -3.3009    0.0000    0.0000 N   0  0  0  0  0  0  0  0  0  0  0  0
   -4.6986    0.0000    0.0000 O   0  0  0  0  0  0  0  0  0  0  0  0
    2.9326    0.0000    0.0000 O   0  0  0  0  0  0  0  0  0  0  0  0
    2.8464    0.0000    0.0000 P   0  0  0  0  0  0  0  0  0  0  0  0
    2.0260    0.0000    0.0000 O   0  5  0  0  0  0  0  0  0  0  0  0
    3.6668    0.0000    0.0000 O   0  0  0  0  0  0  0  0  0  0  0  0
    2.7601    0.0000    0.0000 O   0  0  0  0  0  0  0  0  0  0  0  0
    3.4276    0.0000    0.0000 C   0  0  0  0  0  0  0  0  0  0  0  0
    4.2122    0.0000    0.0000 C   0  0  0  0  0  0  0  0  0  0  0  0
    4.4671    0.0000    0.0000 C   0  0  0  0  0  0  0  0  0  0  0  0
    5.2741    0.0000    0.0000 O   0  0  0  0  0  0  0  0  0  0  0  0
    4.6971    0.0000    0.0000 O   0  0  0  0  0  0  0  0  0  0  0  0
    4.2122    0.0000    0.0000 C   0  0  0  0  0  0  0  0  0  0  0  0
    3.4276    0.0000    0.0000 C   0  0  0  0  0  0  0  0  0  0  0  0
    2.7601    0.0000    0.0000 O   0  0  0  0  0  0  0  0  0  0  0  0
    4.4671    0.0000    0.0000 N   0  0  0  0  0  0  0  0  0  0  0  0
    3.9822    0.0000    0.0000 C   0  0  0  0  0  0  0  0  0  0  0  0
    4.4671    0.0000    0.0000 N   0  0  0  0  0  0  0  0  0  0  0  0
    5.2517    0.0000    0.0000 C   0  0  0  0  0  0  0  0  0  0  0  0
    5.2517    0.0000    0.0000 C   0  0  0  0  0  0  0  0  0  0  0  0
    5.9662    0.0000    0.0000 C   0  0  0  0  0  0  0  0  0  0  0  0
    6.6807    0.0000    0.0000 C   0  0  0  0  0  0  0  0  0  0  0  0
    7.3952    0.0000    0.0000 C   0  0  0  0  0  0  0  0  0  0  0  0
    6.6807    0.0000    0.0000 C   0  0  0  0  0  0  0  0  0  0  0  0
    7.3952    0.0000    0.0000 C   0  0  0  0  0  0  0  0  0  0  0  0
    5.9662    0.0000    0.0000 C   0  0  0  0  0  0  0  0  0  0  0  0
  3  4  1  0      
  4  5  1  0      
  5  6  1  0      
  6  7  1  0      
  7  8  2  0      
  7  9  1  0      
  9 10  1  0      
 10 11  1  0      
 11 12  1  0      
 11 13  1  0      
 13 14  1  0      
 14 15  1  0      
 15 16  1  0      
 15 17  2  0      
 13 18  1  0      
 18 19  1  0      
 19 20  2  0      
 11 20  1  0      
 20 21  1  0      
 21 22  1  4      
 21 23  2  0      
 23 24  1  0      
 24 25  2  0      
 26 25  1  4      
 26 27  2  0      
 27 28  1  0      
 28 29  2  0      
 29 30  1  0      
 30 31  1  4      
 30 32  2  0      
 32 33  1  0      
 33 34  1  0      
 18 34  1  0      
 34 35  1  0      
 34 36  1  0      
 36 37  1  0      
 36 38  1  0      
 38 39  1  0      
 39 40  1  0      
 39 41  2  0      
 36 42  1  0      
 32 42  1  0      
 42 43  1  0      
 43 44  1  0      
 44 45  1  0      
 45 46  1  0      
 45 47  2  0      
 29 48  1  0      
 48 49  1  0      
 48 50  1  0      
 50 51  1  0      
 51 52  1  0      
 51 53  2  0      
 48 54  1  0      
 27 54  1  0      
 54 55  1  0      
 55 56  1  0      
 56 57  1  0      
 57 58  1  0      
 57 59  2  0      
 25 60  1  0      
 60 61  1  0      
 60 62  1  0      
 60 63  1  0      
 23 63  1  0      
 63 64  1  0      
 64 65  1  0      
 65 66  1  0      
 66 67  1  0      
 66 68  2  0      
  4 69  1  0      
 69 70  1  0      
 70 71  1  0      
 70 72  2  0      
 70 73  1  0      
 73 74  1  0      
 74 75  1  0      
 75 76  1  0      
 76 77  1  0      
 75 78  1  0      
 78 79  1  0      
 79 80  1  0      
 74 80  1  0      
 80 81  1  0      
 79 82  1  0      
 82 83  1  0      
 83 84  2  0      
 84 85  1  0      
 85 86  2  0      
 82 86  1  0      
 86 87  1  0      
 87 88  2  0      
 88 89  1  0      
 88 90  1  0      
 90 91  1  0      
 90 92  2  0      
 85 92  1  0      
M  CHG  4   1  -1   2   3  33  -1  71  -1
M  END
>  <Bioactivity>
Methylcobalamin a cobalamin, is a form of vitamin B12.

>  <CAS>
13422-55-4

>  <Col>
6

>  <Formula>
C63H91CoN13O14P

>  <ID>
T3136

>  <Index>
565

>  <MOLENAME>
Methylcobalamin

>  <MolWt>
1344.38

>  <Pathways>
Others

>  <Plate>
PLATE 008

>  <QR code>
1151480509

>  <Receptor>
Others

>  <Reference>
1. Kumudha A, et al. Food Chem. 2015 Mar 1;170:316-20.

>  <Row>
A

>  <SMILES>
[CH3-].[Co+3].CC(CNC(=O)CCC1(C)C(CC(N)=O)C2N=C1C(C)=C1N=C(C=C3N=C(C(C)=C4[N-]C2(C)C(C)(CC(N)=O)C4CCC(N)=O)C(C)(CC(N)=O)C3CCC(N)=O)C(C)(C)C1CCC(N)=O)OP([O-])(=O)OC1C(CO)OC(C1O)N1C=NC2=C1C=C(C)C(C)=C2

>  <Target>
Others

>  <Weight>
10mg

$$$$
Lab-1.sdf
  ChemDraw05232018482D

 26 27  0  0  0  0  0  0  0  0999 V2000
   -4.0364    0.0000    0.0000 Cl  0  0  0  0  0  0  0  0  0  0  0  0
   -1.6793    0.0000    0.0000 C   0  0  0  0  0  0  0  0  0  0  0  0
   -1.6793    0.0000    0.0000 O   0  0  0  0  0  0  0  0  0  0  0  0
   -0.9649    0.0000    0.0000 C   0  0  0  0  0  0  0  0  0  0  0  0
   -0.9649    0.0000    0.0000 C   0  0  0  0  0  0  0  0  0  0  0  0
   -1.6793    0.0000    0.0000 O   0  0  0  0  0  0  0  0  0  0  0  0
   -1.6793    0.0000    0.0000 C   0  0  0  0  0  0  0  0  0  0  0  0
   -0.2503    0.0000    0.0000 C   0  0  0  0  0  0  0  0  0  0  0  0
    0.4641    0.0000    0.0000 C   0  0  0  0  0  0  0  0  0  0  0  0
    1.1785    0.0000    0.0000 C   0  0  0  0  0  0  0  0  0  0  0  0
    1.1785    0.0000    0.0000 C   0  0  0  0  0  0  0  0  0  0  0  0
    0.4641    0.0000    0.0000 N   0  0  0  0  0  0  0  0  0  0  0  0
    0.4641    0.0000    0.0000 C   0  0  0  0  0  0  0  0  0  0  0  0
    1.1785    0.0000    0.0000 C   0  0  0  0  0  0  0  0  0  0  0  0
    1.8930    0.0000    0.0000 C   0  0  0  0  0  0  0  0  0  0  0  0
    2.6075    0.0000    0.0000 C   0  0  0  0  0  0  0  0  0  0  0  0
    3.3219    0.0000    0.0000 C   0  0  0  0  0  0  0  0  0  0  0  0
    4.0364    0.0000    0.0000 O   0  0  0  0  0  0  0  0  0  0  0  0
    4.0364    0.0000    0.0000 C   0  0  0  0  0  0  0  0  0  0  0  0
    3.3219    0.0000    0.0000 C   0  0  0  0  0  0  0  0  0  0  0  0
    4.0364    0.0000    0.0000 O   0  0  0  0  0  0  0  0  0  0  0  0
    4.0364    0.0000    0.0000 C   0  0  0  0  0  0  0  0  0  0  0  0
    2.6075    0.0000    0.0000 C   0  0  0  0  0  0  0  0  0  0  0  0
    1.8930    0.0000    0.0000 C   0  0  0  0  0  0  0  0  0  0  0  0
    0.4641    0.0000    0.0000 C   0  0  0  0  0  0  0  0  0  0  0  0
   -0.2503    0.0000    0.0000 C   0  0  0  0  0  0  0  0  0  0  0  0
  2  3  1  0      
  3  4  1  0      
  4  5  2  0      
  5  6  1  0      
  6  7  1  0      
  5  8  1  0      
  8  9  2  0      
  9 10  1  0      
 10 11  1  0      
 11 12  1  0      
 12 13  1  0      
 13 14  1  0      
 14 15  1  0      
 15 16  2  0      
 16 17  1  0      
 17 18  1  0      
 18 19  1  0      
 17 20  2  0      
 20 21  1  0      
 21 22  1  0      
 20 23  1  0      
 23 24  2  0      
 11 24  1  0      
 15 24  1  0      
  9 25  1  0      
 25 26  2  0      
  4 26  1  0      
M  END
>  <Bioactivity>
Tetrahydropapaverine, one of the TIQs and an analogue of salsolinol and tetrahydropapaveroline, has been reported to have neurotoxic effects on dopamine neurons.

>  <CAS>
6429-04-5

>  <Col>
7

>  <Formula>
C20H25NO4?HCl

>  <ID>
T6004

>  <Index>
566

>  <MOLENAME>
Tetrahydropapaverine hydrochloride

>  <MolWt>
379.88

>  <Pathways>
Metabolism

>  <Plate>
PLATE 008

>  <QR code>
1151480508

>  <Receptor>
Tryptophan hydroxylase

>  <Reference>
1. Kim EI, et al. Life Sci, 2004, 75(16), 1949-1957.

>  <Row>
A

>  <SMILES>
Cl.COC1=C(OC)C=C(CC2NCCC3=CC(OC)=C(OC)C=C23)C=C1

>  <Target>
Hydroxylase inhibitor

>  <Weight>
10.3mg

$$$$
Lab-1.sdf
  ChemDraw05232018482D

 44 45  0  0  0  0  0  0  0  0999 V2000
    3.2151    0.0000    0.0000 C   0  0  0  0  0  0  0  0  0  0  0  0
    3.9296    0.0000    0.0000 C   0  0  0  0  0  0  0  0  0  0  0  0
    3.9296    0.0000    0.0000 C   0  0  0  0  0  0  0  0  0  0  0  0
    4.6441    0.0000    0.0000 C   0  0  0  0  0  0  0  0  0  0  0  0
    5.3585    0.0000    0.0000 C   0  0  0  0  0  0  0  0  0  0  0  0
    5.3585    0.0000    0.0000 C   0  0  0  0  0  0  0  0  0  0  0  0
    4.6441    0.0000    0.0000 C   0  0  0  0  0  0  0  0  0  0  0  0
    4.6441    0.0000    0.0000 O   0  0  0  0  0  0  0  0  0  0  0  0
    6.0730    0.0000    0.0000 O   0  0  0  0  0  0  0  0  0  0  0  0
    4.2568    0.0000    0.0000 C   0  0  0  0  0  0  0  0  0  0  0  0
    5.0314    0.0000    0.0000 C   0  0  0  0  0  0  0  0  0  0  0  0
    3.2151    0.0000    0.0000 C   0  0  0  0  0  0  0  0  0  0  0  0
    3.2151    0.0000    0.0000 C   0  0  0  0  0  0  0  0  0  0  0  0
    2.5007    0.0000    0.0000 C   0  0  0  0  0  0  0  0  0  0  0  0
    2.5007    0.0000    0.0000 C   0  0  0  0  0  0  0  0  0  0  0  0
    1.7862    0.0000    0.0000 C   0  0  0  0  0  0  0  0  0  0  0  0
    1.7862    0.0000    0.0000 C   0  0  0  0  0  0  0  0  0  0  0  0
    1.0717    0.0000    0.0000 C   0  0  0  0  0  0  0  0  0  0  0  0
    1.0717    0.0000    0.0000 C   0  0  0  0  0  0  0  0  0  0  0  0
    0.3572    0.0000    0.0000 C   0  0  0  0  0  0  0  0  0  0  0  0
    0.3572    0.0000    0.0000 C   0  0  0  0  0  0  0  0  0  0  0  0
   -0.3572    0.0000    0.0000 C   0  0  0  0  0  0  0  0  0  0  0  0
   -0.3572    0.0000    0.0000 C   0  0  0  0  0  0  0  0  0  0  0  0
    0.3572    0.0000    0.0000 C   0  0  0  0  0  0  0  0  0  0  0  0
   -1.0717    0.0000    0.0000 C   0  0  0  0  0  0  0  0  0  0  0  0
   -1.0717    0.0000    0.0000 C   0  0  0  0  0  0  0  0  0  0  0  0
   -1.7862    0.0000    0.0000 C   0  0  0  0  0  0  0  0  0  0  0  0
   -1.7862    0.0000    0.0000 C   0  0  0  0  0  0  0  0  0  0  0  0
   -1.0717    0.0000    0.0000 C   0  0  0  0  0  0  0  0  0  0  0  0
   -2.5006    0.0000    0.0000 C   0  0  0  0  0  0  0  0  0  0  0  0
   -3.2151    0.0000    0.0000 C   0  0  0  0  0  0  0  0  0  0  0  0
   -3.9296    0.0000    0.0000 C   0  0  0  0  0  0  0  0  0  0  0  0
   -4.6440    0.0000    0.0000 C   0  0  0  0  0  0  0  0  0  0  0  0
   -5.3585    0.0000    0.0000 C   0  0  0  0  0  0  0  0  0  0  0  0
   -6.0730    0.0000    0.0000 O   0  0  0  0  0  0  0  0  0  0  0  0
   -5.3585    0.0000    0.0000 C   0  0  0  0  0  0  0  0  0  0  0  0
   -4.6440    0.0000    0.0000 C   0  0  0  0  0  0  0  0  0  0  0  0
   -3.9296    0.0000    0.0000 C   0  0  0  0  0  0  0  0  0  0  0  0
   -3.4924    0.0000    0.0000 C   0  0  0  0  0  0  0  0  0  0  0  0
   -3.1051    0.0000    0.0000 C   0  0  0  0  0  0  0  0  0  0  0  0
   -6.0730    0.0000    0.0000 O   0  0  0  0  0  0  0  0  0  0  0  0
   -4.6440    0.0000    0.0000 C   0  0  0  0  0  0  0  0  0  0  0  0
    0.3572    0.0000    0.0000 C   0  0  0  0  0  0  0  0  0  0  0  0
    1.7862    0.0000    0.0000 C   0  0  0  0  0  0  0  0  0  0  0  0
  1  2  1  0      
  2  3  2  0      
  3  4  1  0      
  4  5  1  0      
  5  6  1  0      
  6  7  1  0      
  2  7  1  0      
  7  8  2  0      
  6  9  1  0      
  4 10  1  0      
  4 11  1  0      
 12  3  1  4      
 12 13  2  0      
 13 14  1  0      
 14 15  2  0      
 15 16  1  4      
 16 17  2  0      
 17 18  1  4      
 18 19  2  0      
 19 20  1  4      
 20 21  2  0      
 21 22  1  4      
 22 23  2  0      
 23 24  1  4      
 25 23  1  4      
 25 26  2  0      
 27 26  1  4      
 27 28  2  0      
 28 29  1  0      
 30 28  1  4      
 30 31  2  0      
 31 32  1  0      
 32 33  2  0      
 33 34  1  0      
 34 35  2  0      
 34 36  1  0      
 36 37  1  0      
 37 38  1  0      
 32 38  1  0      
 38 39  1  0      
 38 40  1  0      
 36 41  1  0      
 33 42  1  0      
 18 43  1  0      
 14 44  1  0      
M  END
>  <Bioactivity>
Astaxanthin is a natural dietary component. Natural astaxanthin is generally recognized as safe (GRAS) by the FDA

>  <CAS>
472-61-7

>  <Col>
8

>  <Formula>
C40H52O4

>  <ID>
T3138

>  <Index>
567

>  <MOLENAME>
Astaxanthin

>  <MolWt>
596.84

>  <Pathways>
Others

>  <Plate>
PLATE 008

>  <QR code>
1151480507

>  <Receptor>
Others

>  <Reference>
1. Zhang J, et al. J Cell Mol Med. 2015 Sep;19(9):2215-31.

>  <Row>
A

>  <SMILES>
CC1=C(C(CC(C1=O)O)(C)C)C=CC(=CC=CC(=CC=CC=C(C)C=CC=C(C)C=CC2=C(C(=O)C(CC2(C)C)O)C)C)C

>  <Target>
Others

>  <Weight>
10.1mg

$$$$
Lab-1.sdf
  ChemDraw05232018482D

 24 24  0  0  0  0  0  0  0  0999 V2000
   -4.0364    0.0000    0.0000 O   0  0  0  0  0  0  0  0  0  0  0  0
    3.3219    0.0000    0.0000 O   0  0  0  0  0  0  0  0  0  0  0  0
    2.6075    0.0000    0.0000 C   0  0  0  0  0  0  0  0  0  0  0  0
    2.6075    0.0000    0.0000 C   0  0  0  0  0  0  0  0  0  0  0  0
    1.8930    0.0000    0.0000 O   0  0  0  0  0  0  0  0  0  0  0  0
    1.8930    0.0000    0.0000 C   0  0  0  0  0  0  0  0  0  0  0  0
    1.1785    0.0000    0.0000 O   0  0  0  0  0  0  0  0  0  0  0  0
    0.4641    0.0000    0.0000 C   0  0  0  0  0  0  0  0  0  0  0  0
   -0.2503    0.0000    0.0000 O   0  0  0  0  0  0  0  0  0  0  0  0
   -0.9649    0.0000    0.0000 C   0  0  0  0  0  0  0  0  0  0  0  0
   -1.6793    0.0000    0.0000 C   0  0  0  0  0  0  0  0  0  0  0  0
   -1.6793    0.0000    0.0000 O   0  0  0  0  0  0  0  0  0  0  0  0
   -0.9649    0.0000    0.0000 C   0  0  0  0  0  0  0  0  0  0  0  0
   -1.6793    0.0000    0.0000 O   0  0  0  0  0  0  0  0  0  0  0  0
   -0.2503    0.0000    0.0000 C   0  0  0  0  0  0  0  0  0  0  0  0
   -0.2503    0.0000    0.0000 O   0  0  0  0  0  0  0  0  0  0  0  0
    0.4641    0.0000    0.0000 C   0  0  0  0  0  0  0  0  0  0  0  0
    1.1785    0.0000    0.0000 O   0  0  0  0  0  0  0  0  0  0  0  0
    2.6075    0.0000    0.0000 C   0  0  0  0  0  0  0  0  0  0  0  0
    2.6075    0.0000    0.0000 O   0  0  0  0  0  0  0  0  0  0  0  0
    3.3219    0.0000    0.0000 C   0  0  0  0  0  0  0  0  0  0  0  0
    4.0364    0.0000    0.0000 O   0  0  0  0  0  0  0  0  0  0  0  0
    3.3219    0.0000    0.0000 C   0  0  0  0  0  0  0  0  0  0  0  0
    4.0364    0.0000    0.0000 O   0  0  0  0  0  0  0  0  0  0  0  0
  2  3  1  0      
  3  4  1  0      
  4  5  1  0      
  5  6  1  0      
  6  7  1  0      
  7  8  1  0      
  8  9  1  0      
  9 10  1  0      
 10 11  1  0      
 11 12  1  0      
 10 13  1  0      
 13 14  1  0      
 13 15  1  0      
 15 16  1  0      
 15 17  1  0      
  8 17  1  0      
 17 18  1  0      
  6 19  1  0      
 19 20  1  0      
 19 21  1  0      
 21 22  1  0      
 21 23  1  0      
  4 23  1  0      
 23 24  1  0      
M  END
>  <Bioactivity>
Trehalose is a natural alpha-linked disaccharide formed by an ¦Á,¦Á-1,1-glucoside bond between two ¦Á-glucose units.

>  <CAS>
6138-23-4

>  <Col>
9

>  <Formula>
C12H26O13

>  <ID>
T3145

>  <Index>
568

>  <MOLENAME>
D-(+)-Trehalose dihydrate

>  <MolWt>
378.33

>  <Pathways>
Others

>  <Plate>
PLATE 008

>  <QR code>
1151480506

>  <Receptor>
Others

>  <Reference>
1. Sapir L, Harries D. J Phys Chem B. 2011 Feb 3;115(4):624-34. 

>  <Row>
A

>  <SMILES>
O.OCC1OC(OC2OC(CO)C(O)C(O)C2O)C(O)C(O)C1O

>  <Target>
Others

>  <Weight>
10.2mg

$$$$
Lab-1.sdf
  ChemDraw05232018482D

 22 25  0  0  0  0  0  0  0  0999 V2000
   -0.9170    0.0000    0.0000 C   0  0  0  0  0  0  0  0  0  0  0  0
   -1.1973    0.0000    0.0000 C   0  0  0  0  0  0  0  0  0  0  0  0
   -2.0094    0.0000    0.0000 C   0  0  0  0  0  0  0  0  0  0  0  0
   -2.2897    0.0000    0.0000 C   0  0  0  0  0  0  0  0  0  0  0  0
   -3.1019    0.0000    0.0000 O   0  0  0  0  0  0  0  0  0  0  0  0
   -1.7579    0.0000    0.0000 C   0  0  0  0  0  0  0  0  0  0  0  0
   -0.9458    0.0000    0.0000 C   0  0  0  0  0  0  0  0  0  0  0  0
   -0.4140    0.0000    0.0000 C   0  0  0  0  0  0  0  0  0  0  0  0
    0.3982    0.0000    0.0000 C   0  0  0  0  0  0  0  0  0  0  0  0
    0.6785    0.0000    0.0000 C   0  0  0  0  0  0  0  0  0  0  0  0
    1.4907    0.0000    0.0000 C   0  0  0  0  0  0  0  0  0  0  0  0
    2.1420    0.0000    0.0000 C   0  0  0  0  0  0  0  0  0  0  0  0
    2.8248    0.0000    0.0000 C   0  0  0  0  0  0  0  0  0  0  0  0
    2.5955    0.0000    0.0000 C   0  0  0  0  0  0  0  0  0  0  0  0
    3.1019    0.0000    0.0000 O   0  0  0  0  0  0  0  0  0  0  0  0
    1.7710    0.0000    0.0000 C   0  0  0  0  0  0  0  0  0  0  0  0
    2.1308    0.0000    0.0000 C   0  0  0  0  0  0  0  0  0  0  0  0
    1.2391    0.0000    0.0000 C   0  0  0  0  0  0  0  0  0  0  0  0
    0.4270    0.0000    0.0000 C   0  0  0  0  0  0  0  0  0  0  0  0
    0.1467    0.0000    0.0000 C   0  0  0  0  0  0  0  0  0  0  0  0
   -0.6655    0.0000    0.0000 C   0  0  0  0  0  0  0  0  0  0  0  0
   -0.3852    0.0000    0.0000 C   0  0  0  0  0  0  0  0  0  0  0  0
  1  2  1  0      
  2  3  1  0      
  3  4  1  0      
  4  5  2  0      
  4  6  1  0      
  6  7  1  0      
  7  8  1  0      
  8  9  1  0      
  9 10  1  0      
 10 11  1  0      
 11 12  1  0      
 12 13  1  0      
 13 14  1  0      
 14 15  1  0      
 14 16  1  0      
 11 16  1  0      
 16 17  1  0      
 16 18  1  0      
 18 19  1  0      
 19 20  1  0      
 10 20  1  0      
 20 21  1  0      
  2 21  1  0      
  7 21  1  0      
 21 22  1  0      
M  END
>  <Bioactivity>
Mesterolone is an orally applicable androgen and dihydrotestosterone (DHT) derivative.

>  <CAS>
1424-00-6

>  <Col>
10

>  <Formula>
C20H32O2

>  <ID>
T3143

>  <Index>
569

>  <MOLENAME>
Mesterolone

>  <MolWt>
304.47

>  <Pathways>
Endocrinology/ Hormones

>  <Plate>
PLATE 008

>  <QR code>
1151480505

>  <Receptor>
Androgens receptor

>  <Reference>
1. Lu J, et al. J Mass Spectrom. 2015 Jan;50(1):153-9. 

>  <Row>
A

>  <SMILES>
CC1CC(=O)CC2CCC3C4CCC(O)C4(C)CCC3C12C

>  <Target>
Androgens Receptor agonist

>  <Weight>
10.2mg

$$$$
Lab-1.sdf
  ChemDraw05232018482D

 22 24  0  0  0  0  0  0  0  0999 V2000
   -2.8535    0.0000    0.0000 C   0  0  0  0  0  0  0  0  0  0  0  0
   -2.4410    0.0000    0.0000 C   0  0  0  0  0  0  0  0  0  0  0  0
   -2.8535    0.0000    0.0000 C   0  0  0  0  0  0  0  0  0  0  0  0
   -1.6161    0.0000    0.0000 C   0  0  0  0  0  0  0  0  0  0  0  0
   -1.2036    0.0000    0.0000 C   0  0  0  0  0  0  0  0  0  0  0  0
   -0.3786    0.0000    0.0000 C   0  0  0  0  0  0  0  0  0  0  0  0
    0.0339    0.0000    0.0000 C   0  0  0  0  0  0  0  0  0  0  0  0
    0.8589    0.0000    0.0000 C   0  0  0  0  0  0  0  0  0  0  0  0
    1.2714    0.0000    0.0000 C   0  0  0  0  0  0  0  0  0  0  0  0
    0.8589    0.0000    0.0000 C   0  0  0  0  0  0  0  0  0  0  0  0
    0.4464    0.0000    0.0000 C   0  0  0  0  0  0  0  0  0  0  0  0
    1.2714    0.0000    0.0000 C   0  0  0  0  0  0  0  0  0  0  0  0
    2.0963    0.0000    0.0000 C   0  0  0  0  0  0  0  0  0  0  0  0
    2.5088    0.0000    0.0000 C   0  0  0  0  0  0  0  0  0  0  0  0
    2.0963    0.0000    0.0000 C   0  0  0  0  0  0  0  0  0  0  0  0
    2.7959    0.0000    0.0000 C   0  0  0  0  0  0  0  0  0  0  0  0
    2.1251    0.0000    0.0000 C   0  0  0  0  0  0  0  0  0  0  0  0
    2.8535    0.0000    0.0000 O   0  0  0  0  0  0  0  0  0  0  0  0
    1.4255    0.0000    0.0000 O   0  0  0  0  0  0  0  0  0  0  0  0
    0.0339    0.0000    0.0000 C   0  0  0  0  0  0  0  0  0  0  0  0
   -0.3786    0.0000    0.0000 C   0  0  0  0  0  0  0  0  0  0  0  0
   -1.2036    0.0000    0.0000 C   0  0  0  0  0  0  0  0  0  0  0  0
  1  2  1  0      
  2  3  1  0      
  2  4  1  0      
  4  5  2  0      
  5  6  1  0      
  6  7  2  0      
  7  8  1  0      
  8  9  1  0      
  9 10  1  0      
 10 11  1  0      
 10 12  1  0      
 12 13  1  0      
 13 14  1  0      
 14 15  1  0      
  9 15  1  0      
 15 16  1  0      
 15 17  1  0      
 17 18  1  0      
 17 19  2  0      
 10 20  1  0      
  6 20  1  0      
 20 21  1  0      
 21 22  1  0      
  4 22  1  0      
M  END
>  <Bioactivity>
Abietic acid is the primary component of resin acid, is the primary irritant in pine wood and resin, isolated from rosin (via isomerization) and is the most abundant of several closely related organic
 acids that constitute most of rosin, the solid portion of the oleoresin of coniferous trees.

>  <CAS>
514-10-3

>  <Col>
11

>  <Formula>
C20H30O2

>  <ID>
T3090

>  <Index>
570

>  <MOLENAME>
Abietic Acid

>  <MolWt>
302.45

>  <Pathways>
Metabolism; Proteases/Proteasome

>  <Plate>
PLATE 008

>  <QR code>
1151480504

>  <Receptor>
PPAR¦Á/¦Ã; MMP-1

>  <Reference>
1. Jeon Y, et al. Exp Dermatol. 2015 Feb;24(2):140-5. 

>  <Row>
A

>  <SMILES>
CC(C)C1=CC2=CCC3C(C)(CCCC3(C)C(O)=O)C2CC1

>  <Target>
PPAR activator; MMP inhibitor

>  <Weight>
10.1mg

$$$$
Lab-1.sdf
  ChemDraw05232018482D

 15 17  0  0  0  0  0  0  0  0999 V2000
   -2.1328    0.0000    0.0000 C   0  0  0  0  0  0  0  0  0  0  0  0
   -1.8779    0.0000    0.0000 C   0  0  0  0  0  0  0  0  0  0  0  0
   -1.0709    0.0000    0.0000 C   0  0  0  0  0  0  0  0  0  0  0  0
   -0.4035    0.0000    0.0000 N   0  0  0  0  0  0  0  0  0  0  0  0
    0.2640    0.0000    0.0000 C   0  0  0  0  0  0  0  0  0  0  0  0
    1.0709    0.0000    0.0000 C   0  0  0  0  0  0  0  0  0  0  0  0
    1.6230    0.0000    0.0000 C   0  0  0  0  0  0  0  0  0  0  0  0
    2.4299    0.0000    0.0000 O   0  0  0  0  0  0  0  0  0  0  0  0
    1.3680    0.0000    0.0000 C   0  0  0  0  0  0  0  0  0  0  0  0
    0.5611    0.0000    0.0000 C   0  0  0  0  0  0  0  0  0  0  0  0
    0.0090    0.0000    0.0000 C   0  0  0  0  0  0  0  0  0  0  0  0
   -0.8160    0.0000    0.0000 C   0  0  0  0  0  0  0  0  0  0  0  0
   -1.3680    0.0000    0.0000 C   0  0  0  0  0  0  0  0  0  0  0  0
   -2.1750    0.0000    0.0000 C   0  0  0  0  0  0  0  0  0  0  0  0
   -2.4299    0.0000    0.0000 N   0  0  0  0  0  0  0  0  0  0  0  0
  1  2  1  0      
  2  3  2  0      
  3  4  1  0      
  4  5  1  0      
  5  6  2  0      
  6  7  1  0      
  7  8  2  0      
  7  9  1  0      
  9 10  2  0      
 10 11  1  0      
  5 11  1  0      
 11 12  2  0      
  3 12  1  0      
 12 13  1  0      
 13 14  2  0      
 14 15  1  0      
  2 15  1  0      
M  END
>  <Bioactivity>
Harmol is a ¦Â-carboline isolated from nature.

>  <CAS>
487-03-6

>  <Col>
2

>  <Formula>
C12H10N2O

>  <ID>
T3152

>  <Index>
571

>  <MOLENAME>
Harmol

>  <MolWt>
198.22

>  <Pathways>
Others

>  <Plate>
PLATE 008

>  <QR code>
1151480492

>  <Receptor>
Others

>  <Reference>
1. Abe A, et al. Biol Pharm Bull. 2011;34(8):1264-72.

>  <Row>
B

>  <SMILES>
CC1=C2NC3=CC(=O)C=CC3=C2C=CN1

>  <Target>
Others

>  <Weight>
10.3mg

$$$$
Lab-1.sdf
  ChemDraw05232018482D

 26 29  0  0  0  0  0  0  0  0999 V2000
   -4.1723    0.0000    0.0000 C   0  0  0  0  0  0  0  0  0  0  0  0
   -3.3551    0.0000    0.0000 C   0  0  0  0  0  0  0  0  0  0  0  0
   -2.8487    0.0000    0.0000 C   0  0  0  0  0  0  0  0  0  0  0  0
   -3.1596    0.0000    0.0000 O   0  0  0  0  0  0  0  0  0  0  0  0
   -2.0314    0.0000    0.0000 O   0  0  0  0  0  0  0  0  0  0  0  0
   -1.5250    0.0000    0.0000 C   0  0  0  0  0  0  0  0  0  0  0  0
   -1.7543    0.0000    0.0000 C   0  0  0  0  0  0  0  0  0  0  0  0
   -1.0715    0.0000    0.0000 C   0  0  0  0  0  0  0  0  0  0  0  0
   -0.4202    0.0000    0.0000 C   0  0  0  0  0  0  0  0  0  0  0  0
    0.3920    0.0000    0.0000 C   0  0  0  0  0  0  0  0  0  0  0  0
    0.6722    0.0000    0.0000 C   0  0  0  0  0  0  0  0  0  0  0  0
    1.4844    0.0000    0.0000 C   0  0  0  0  0  0  0  0  0  0  0  0
    2.0162    0.0000    0.0000 C   0  0  0  0  0  0  0  0  0  0  0  0
    2.8284    0.0000    0.0000 C   0  0  0  0  0  0  0  0  0  0  0  0
    3.3602    0.0000    0.0000 C   0  0  0  0  0  0  0  0  0  0  0  0
    4.1723    0.0000    0.0000 O   0  0  0  0  0  0  0  0  0  0  0  0
    3.0799    0.0000    0.0000 C   0  0  0  0  0  0  0  0  0  0  0  0
    3.6117    0.0000    0.0000 C   0  0  0  0  0  0  0  0  0  0  0  0
    2.2678    0.0000    0.0000 C   0  0  0  0  0  0  0  0  0  0  0  0
    1.7359    0.0000    0.0000 C   0  0  0  0  0  0  0  0  0  0  0  0
    1.4556    0.0000    0.0000 C   0  0  0  0  0  0  0  0  0  0  0  0
    0.9238    0.0000    0.0000 C   0  0  0  0  0  0  0  0  0  0  0  0
    0.6435    0.0000    0.0000 C   0  0  0  0  0  0  0  0  0  0  0  0
   -0.1686    0.0000    0.0000 C   0  0  0  0  0  0  0  0  0  0  0  0
   -0.7005    0.0000    0.0000 C   0  0  0  0  0  0  0  0  0  0  0  0
   -1.0603    0.0000    0.0000 C   0  0  0  0  0  0  0  0  0  0  0  0
  1  2  1  0      
  2  3  1  0      
  3  4  2  0      
  3  5  1  0      
  5  6  1  0      
  6  7  1  0      
  7  8  1  0      
  8  9  1  0      
  9 10  1  0      
 10 11  1  0      
 11 12  1  0      
 12 13  1  0      
 13 14  1  0      
 14 15  1  0      
 15 16  2  0      
 15 17  1  0      
 17 18  1  0      
 17 19  1  0      
 19 20  1  0      
 13 20  1  0      
 20 21  1  0      
 20 22  1  0      
 10 22  1  0      
 22 23  1  0      
 23 24  1  0      
 24 25  1  0      
  6 25  1  0      
  9 25  1  0      
 25 26  1  0      
M  END
>  <Bioactivity>
Dromostanolone Propionate is the propionate salt form of dromostanolone, a synthetic anabolic steroid related to dihydrotestosterone that has antiestrogenic effects. Dromostanolone inhibits the growth
 of estrogen receptor-presenting breast Ys; its virilizing effects limit its clinical usefulness. 

>  <CAS>
521-12-0

>  <Col>
3

>  <Formula>
C23H36O3

>  <ID>
T3142

>  <Index>
572

>  <MOLENAME>
Drostanolone Propionate

>  <MolWt>
360.53

>  <Pathways>
Others

>  <Plate>
PLATE 008

>  <QR code>
1151480493

>  <Receptor>
Others

>  <Reference>
1. Trams G. Eur J Y. 1977 Feb;13(2):149-53.

>  <Row>
B

>  <SMILES>
CCC(=O)OC1CCC2C3CCC4CC(=O)C(C)CC4(C)C3CCC12C

>  <Target>
Others

>  <Weight>
10.2mg

$$$$
Lab-1.sdf
  ChemDraw05232018482D

 35 39  0  0  0  0  0  0  0  0999 V2000
   -5.0013    0.0000    0.0000 C   0  0  0  0  0  0  0  0  0  0  0  0
   -4.2868    0.0000    0.0000 O   0  0  0  0  0  0  0  0  0  0  0  0
   -3.5723    0.0000    0.0000 C   0  0  0  0  0  0  0  0  0  0  0  0
   -3.5723    0.0000    0.0000 C   0  0  0  0  0  0  0  0  0  0  0  0
   -4.2868    0.0000    0.0000 O   0  0  0  0  0  0  0  0  0  0  0  0
   -2.8579    0.0000    0.0000 C   0  0  0  0  0  0  0  0  0  0  0  0
   -2.1434    0.0000    0.0000 C   0  0  0  0  0  0  0  0  0  0  0  0
   -2.1434    0.0000    0.0000 C   0  0  0  0  0  0  0  0  0  0  0  0
   -2.8579    0.0000    0.0000 C   0  0  0  0  0  0  0  0  0  0  0  0
   -1.4289    0.0000    0.0000 C   0  0  0  0  0  0  0  0  0  0  0  0
   -1.4289    0.0000    0.0000 O   0  0  0  0  0  0  0  0  0  0  0  0
   -0.7144    0.0000    0.0000 C   0  0  0  0  0  0  0  0  0  0  0  0
   -0.0000    0.0000    0.0000 C   0  0  0  0  0  0  0  0  0  0  0  0
   -0.0000    0.0000    0.0000 O   0  0  0  0  0  0  0  0  0  0  0  0
   -0.7144    0.0000    0.0000 C   0  0  0  0  0  0  0  0  0  0  0  0
   -0.7144    0.0000    0.0000 C   0  0  0  0  0  0  0  0  0  0  0  0
   -1.4289    0.0000    0.0000 O   0  0  0  0  0  0  0  0  0  0  0  0
    0.7145    0.0000    0.0000 C   0  0  0  0  0  0  0  0  0  0  0  0
    0.7145    0.0000    0.0000 C   0  0  0  0  0  0  0  0  0  0  0  0
   -0.0000    0.0000    0.0000 C   0  0  0  0  0  0  0  0  0  0  0  0
   -0.7144    0.0000    0.0000 C   0  0  0  0  0  0  0  0  0  0  0  0
    1.4290    0.0000    0.0000 C   0  0  0  0  0  0  0  0  0  0  0  0
    2.1434    0.0000    0.0000 O   0  0  0  0  0  0  0  0  0  0  0  0
    2.8579    0.0000    0.0000 C   0  0  0  0  0  0  0  0  0  0  0  0
    3.5724    0.0000    0.0000 C   0  0  0  0  0  0  0  0  0  0  0  0
    4.2869    0.0000    0.0000 C   0  0  0  0  0  0  0  0  0  0  0  0
    5.0013    0.0000    0.0000 O   0  0  0  0  0  0  0  0  0  0  0  0
    4.2869    0.0000    0.0000 C   0  0  0  0  0  0  0  0  0  0  0  0
    3.5724    0.0000    0.0000 C   0  0  0  0  0  0  0  0  0  0  0  0
    3.5724    0.0000    0.0000 O   0  0  0  0  0  0  0  0  0  0  0  0
    2.8579    0.0000    0.0000 C   0  0  0  0  0  0  0  0  0  0  0  0
    2.1434    0.0000    0.0000 C   0  0  0  0  0  0  0  0  0  0  0  0
    2.1434    0.0000    0.0000 O   0  0  0  0  0  0  0  0  0  0  0  0
    1.4290    0.0000    0.0000 C   0  0  0  0  0  0  0  0  0  0  0  0
    0.7145    0.0000    0.0000 O   0  0  0  0  0  0  0  0  0  0  0  0
  1  2  1  0      
  2  3  1  0      
  3  4  2  0      
  4  5  1  0      
  4  6  1  0      
  6  7  2  0      
  7  8  1  0      
  8  9  2  0      
  3  9  1  0      
  8 10  1  0      
 10 11  1  0      
 11 12  1  0      
 12 13  2  0      
 13 14  1  0      
 14 15  1  0      
 10 15  1  0      
 15 16  1  0      
 16 17  1  0      
 13 18  1  0      
 18 19  2  0      
 19 20  1  0      
 20 21  2  0      
 12 21  1  0      
 19 22  1  0      
 22 23  1  0      
 23 24  1  0      
 24 25  2  0      
 25 26  1  0      
 26 27  1  0      
 26 28  2  0      
 28 29  1  0      
 29 30  1  0      
 29 31  2  0      
 24 31  1  0      
 31 32  1  0      
 32 33  2  0      
 32 34  1  0      
 22 34  1  0      
 34 35  1  0      
M  END
>  <Bioactivity>
Silymarin (Silybin B), a polyphenolic flavonoid extracted from the seeds of Silybum marianum or milk thistle, is used in the prevention and treatment of liver diseases and primary liver Y.

>  <CAS>
65666-07-1

>  <Col>
4

>  <Formula>
C25H22O10

>  <ID>
T6670

>  <Index>
573

>  <MOLENAME>
Silymarin

>  <MolWt>
482.44

>  <Pathways>
Others

>  <Plate>
PLATE 008

>  <QR code>
1151480494

>  <Receptor>
Others

>  <Reference>
1. Feher J, et al. Curr Pharm Biotechnol, 2012, 13(1), 210-217.

>  <Row>
B

>  <SMILES>
COC1=C(O)C=CC(=C1)C1OC2=C(OC1CO)C=C(C=C2)C1OC2=CC(O)=CC(O)=C2C(=O)C1O

>  <Target>
Others

>  <Weight>
10.1mg

$$$$
Lab-1.sdf
  ChemDraw05232018482D

 30 32  0  0  0  0  0  0  0  0999 V2000
   -3.9295    0.0000    0.0000 C   0  0  0  0  0  0  0  0  0  0  0  0
   -3.9295    0.0000    0.0000 O   0  0  0  0  0  0  0  0  0  0  0  0
   -3.2151    0.0000    0.0000 C   0  0  0  0  0  0  0  0  0  0  0  0
   -3.2151    0.0000    0.0000 C   0  0  0  0  0  0  0  0  0  0  0  0
   -3.9295    0.0000    0.0000 O   0  0  0  0  0  0  0  0  0  0  0  0
   -2.5006    0.0000    0.0000 C   0  0  0  0  0  0  0  0  0  0  0  0
   -1.7861    0.0000    0.0000 C   0  0  0  0  0  0  0  0  0  0  0  0
   -1.0717    0.0000    0.0000 O   0  0  0  0  0  0  0  0  0  0  0  0
   -0.3573    0.0000    0.0000 C   0  0  0  0  0  0  0  0  0  0  0  0
    0.3572    0.0000    0.0000 C   0  0  0  0  0  0  0  0  0  0  0  0
    1.0717    0.0000    0.0000 C   0  0  0  0  0  0  0  0  0  0  0  0
    1.7860    0.0000    0.0000 O   0  0  0  0  0  0  0  0  0  0  0  0
    1.0717    0.0000    0.0000 C   0  0  0  0  0  0  0  0  0  0  0  0
    1.7860    0.0000    0.0000 C   0  0  0  0  0  0  0  0  0  0  0  0
    2.5005    0.0000    0.0000 C   0  0  0  0  0  0  0  0  0  0  0  0
    3.2150    0.0000    0.0000 C   0  0  0  0  0  0  0  0  0  0  0  0
    3.9295    0.0000    0.0000 C   0  0  0  0  0  0  0  0  0  0  0  0
    3.2150    0.0000    0.0000 C   0  0  0  0  0  0  0  0  0  0  0  0
    0.3572    0.0000    0.0000 C   0  0  0  0  0  0  0  0  0  0  0  0
    0.3572    0.0000    0.0000 O   0  0  0  0  0  0  0  0  0  0  0  0
   -0.3573    0.0000    0.0000 C   0  0  0  0  0  0  0  0  0  0  0  0
   -1.0717    0.0000    0.0000 C   0  0  0  0  0  0  0  0  0  0  0  0
   -1.0717    0.0000    0.0000 O   0  0  0  0  0  0  0  0  0  0  0  0
   -1.7861    0.0000    0.0000 C   0  0  0  0  0  0  0  0  0  0  0  0
   -2.5006    0.0000    0.0000 C   0  0  0  0  0  0  0  0  0  0  0  0
   -2.5006    0.0000    0.0000 C   0  0  0  0  0  0  0  0  0  0  0  0
   -1.7861    0.0000    0.0000 C   0  0  0  0  0  0  0  0  0  0  0  0
   -1.7861    0.0000    0.0000 C   0  0  0  0  0  0  0  0  0  0  0  0
   -1.0717    0.0000    0.0000 C   0  0  0  0  0  0  0  0  0  0  0  0
   -2.5006    0.0000    0.0000 C   0  0  0  0  0  0  0  0  0  0  0  0
  1  2  1  0      
  2  3  1  0      
  3  4  2  0      
  4  5  1  0      
  4  6  1  0      
  6  7  2  0      
  7  8  1  0      
  8  9  1  0      
  9 10  2  0      
 10 11  1  0      
 11 12  1  0      
 11 13  2  0      
 13 14  1  0      
 14 15  1  0      
 15 16  2  0      
 16 17  1  0      
 16 18  1  0      
 13 19  1  0      
 19 20  1  0      
 19 21  2  0      
  9 21  1  0      
 21 22  1  0      
 22 23  2  0      
 22 24  1  0      
  7 24  1  0      
 24 25  2  0      
  3 25  1  0      
 25 26  1  0      
 26 27  1  0      
 27 28  2  0      
 28 29  1  0      
 28 30  1  0      
M  END
>  <Bioactivity>
Mangostin is a natural xanthonoid, a type of organic compound isolated from various parts of the mangosteen tree 

>  <CAS>
6147-11-1

>  <Col>
5

>  <Formula>
C24H26O6

>  <ID>
T1717

>  <Index>
574

>  <MOLENAME>
Mangostin

>  <MolWt>
410.46

>  <Pathways>
Others

>  <Plate>
PLATE 008

>  <QR code>
1151480495

>  <Receptor>
Others

>  <Reference>
1. Jung HA, et al. J Agric Food Chem. 2006 Mar 22;54(6):2077-82.

>  <Row>
B

>  <SMILES>
COC1=C(O)C=C2OC3=CC(O)=C(CC=C(C)C)C(O)=C3C(=O)C2=C1CC=C(C)C

>  <Target>
Others

>  <Weight>
10.4mg

$$$$
Lab-1.sdf
  ChemDraw05232018482D

 28 32  0  0  0  0  0  0  0  0999 V2000
   -1.3712    0.0000    0.0000 C   0  0  0  0  0  0  0  0  0  0  0  0
   -1.0114    0.0000    0.0000 C   0  0  0  0  0  0  0  0  0  0  0  0
   -0.4795    0.0000    0.0000 C   0  0  0  0  0  0  0  0  0  0  0  0
    0.3326    0.0000    0.0000 C   0  0  0  0  0  0  0  0  0  0  0  0
    0.6129    0.0000    0.0000 C   0  0  0  0  0  0  0  0  0  0  0  0
    0.0811    0.0000    0.0000 C   0  0  0  0  0  0  0  0  0  0  0  0
    0.3613    0.0000    0.0000 C   0  0  0  0  0  0  0  0  0  0  0  0
    1.1735    0.0000    0.0000 C   0  0  0  0  0  0  0  0  0  0  0  0
    1.7053    0.0000    0.0000 C   0  0  0  0  0  0  0  0  0  0  0  0
    2.5175    0.0000    0.0000 C   0  0  0  0  0  0  0  0  0  0  0  0
    3.0493    0.0000    0.0000 C   0  0  0  0  0  0  0  0  0  0  0  0
    3.8614    0.0000    0.0000 O   0  0  0  0  0  0  0  0  0  0  0  0
    2.7690    0.0000    0.0000 C   0  0  0  0  0  0  0  0  0  0  0  0
    1.9568    0.0000    0.0000 C   0  0  0  0  0  0  0  0  0  0  0  0
    1.4250    0.0000    0.0000 C   0  0  0  0  0  0  0  0  0  0  0  0
    1.1447    0.0000    0.0000 C   0  0  0  0  0  0  0  0  0  0  0  0
   -0.7311    0.0000    0.0000 C   0  0  0  0  0  0  0  0  0  0  0  0
   -0.5334    0.0000    0.0000 O   0  0  0  0  0  0  0  0  0  0  0  0
   -1.3824    0.0000    0.0000 C   0  0  0  0  0  0  0  0  0  0  0  0
   -2.0652    0.0000    0.0000 C   0  0  0  0  0  0  0  0  0  0  0  0
   -1.8359    0.0000    0.0000 C   0  0  0  0  0  0  0  0  0  0  0  0
   -2.3424    0.0000    0.0000 C   0  0  0  0  0  0  0  0  0  0  0  0
   -2.0314    0.0000    0.0000 C   0  0  0  0  0  0  0  0  0  0  0  0
   -2.5378    0.0000    0.0000 O   0  0  0  0  0  0  0  0  0  0  0  0
   -3.3551    0.0000    0.0000 C   0  0  0  0  0  0  0  0  0  0  0  0
   -3.8614    0.0000    0.0000 O   0  0  0  0  0  0  0  0  0  0  0  0
   -3.6660    0.0000    0.0000 C   0  0  0  0  0  0  0  0  0  0  0  0
   -3.1596    0.0000    0.0000 C   0  0  0  0  0  0  0  0  0  0  0  0
  1  2  1  0      
  2  3  1  0      
  3  4  1  0      
  4  5  1  0      
  5  6  1  0      
  6  7  1  0      
  7  8  1  0      
  8  9  1  0      
  9 10  1  0      
 10 11  1  0      
 11 12  1  0      
 11 13  1  0      
 13 14  1  0      
 14 15  1  0      
  5 15  1  0      
  9 15  1  0      
 15 16  1  0      
  6 17  1  0      
  2 17  1  0      
 17 18  1  0      
 17 19  1  0      
 19 20  1  0      
 20 21  1  0      
  2 21  1  0      
 21 22  1  0      
 22 23  2  0      
 23 24  1  0      
 24 25  1  0      
 25 26  2  0      
 25 27  1  0      
 27 28  2  0      
 22 28  1  0      
M  END
>  <Bioactivity>
Bufalin is an active ingredient and one of the glycosides in the traditional Chinese medicine ChanSu; it is also a bufadienolide toxin originally isolated from the venom of the Chinese toad Bufo garga
rizans, with potential cardiotonic and antineoplastic activity. Although the mechanism of action of bufalin is still under investigation, this agent is a specific Na+/K+-ATPase inhibitor and can induc
e apoptosis in Y cell lines through the activation of the transcription factor AP-1 via a mitogen activated protein kinase (MAPK) pathway.

>  <CAS>
465-21-4

>  <Col>
6

>  <Formula>
C24H34O4

>  <ID>
T1719

>  <Index>
575

>  <MOLENAME>
Bufalin

>  <MolWt>
386.52

>  <Pathways>
Membrane Transporter/Ion Channel

>  <Plate>
PLATE 008

>  <QR code>
1151480496

>  <Receptor>
Na+/K+-ATPase 

>  <Reference>
1. Chen YY, et al. Environ Toxicol. 2015 Jan;30(1):74-82.

>  <Row>
B

>  <SMILES>
CC12CCC3C(CCC4CC(O)CCC34C)C1(O)CCC2C1=COC(=O)C=C1

>  <Target>
ATPase inhibitor

>  <Weight>
10.3mg

$$$$
Lab-1.sdf
  ChemDraw05232018482D

 42 46  0  0  0  0  0  0  0  0999 V2000
   -2.9525    0.0000    0.0000 C   0  0  0  0  0  0  0  0  0  0  0  0
   -2.1393    0.0000    0.0000 C   0  0  0  0  0  0  0  0  0  0  0  0
   -1.5782    0.0000    0.0000 C   0  0  0  0  0  0  0  0  0  0  0  0
   -1.6909    0.0000    0.0000 C   0  0  0  0  0  0  0  0  0  0  0  0
   -1.0394    0.0000    0.0000 C   0  0  0  0  0  0  0  0  0  0  0  0
   -1.1521    0.0000    0.0000 C   0  0  0  0  0  0  0  0  0  0  0  0
   -0.5007    0.0000    0.0000 O   0  0  0  0  0  0  0  0  0  0  0  0
   -1.9162    0.0000    0.0000 O   0  0  0  0  0  0  0  0  0  0  0  0
   -0.8206    0.0000    0.0000 C   0  0  0  0  0  0  0  0  0  0  0  0
   -0.9443    0.0000    0.0000 N   0  0  0  0  0  0  0  0  0  0  0  0
   -1.7653    0.0000    0.0000 C   0  0  0  0  0  0  0  0  0  0  0  0
   -2.1521    0.0000    0.0000 C   0  0  0  0  0  0  0  0  0  0  0  0
   -1.7781    0.0000    0.0000 C   0  0  0  0  0  0  0  0  0  0  0  0
   -2.1356    0.0000    0.0000 C   0  0  0  0  0  0  0  0  0  0  0  0
   -2.9511    0.0000    0.0000 C   0  0  0  0  0  0  0  0  0  0  0  0
   -3.2506    0.0000    0.0000 C   0  0  0  0  0  0  0  0  0  0  0  0
   -1.5551    0.0000    0.0000 C   0  0  0  0  0  0  0  0  0  0  0  0
   -1.7009    0.0000    0.0000 C   0  0  0  0  0  0  0  0  0  0  0  0
   -0.8202    0.0000    0.0000 C   0  0  0  0  0  0  0  0  0  0  0  0
   -0.9889    0.0000    0.0000 N   0  0  0  0  0  0  0  0  0  0  0  0
   -0.0916    0.0000    0.0000 C   0  0  0  0  0  0  0  0  0  0  0  0
    0.6143    0.0000    0.0000 C   0  0  0  0  0  0  0  0  0  0  0  0
    0.7679    0.0000    0.0000 N   0  0  0  0  0  0  0  0  0  0  0  0
    1.5301    0.0000    0.0000 C   0  0  0  0  0  0  0  0  0  0  0  0
    1.9463    0.0000    0.0000 C   0  0  0  0  0  0  0  0  0  0  0  0
    1.5719    0.0000    0.0000 C   0  0  0  0  0  0  0  0  0  0  0  0
    0.7537    0.0000    0.0000 N   0  0  0  0  0  0  0  0  0  0  0  0
    0.6142    0.0000    0.0000 C   0  0  0  0  0  0  0  0  0  0  0  0
   -0.0851    0.0000    0.0000 C   0  0  0  0  0  0  0  0  0  0  0  0
    1.4080    0.0000    0.0000 C   0  0  0  0  0  0  0  0  0  0  0  0
    1.5533    0.0000    0.0000 C   0  0  0  0  0  0  0  0  0  0  0  0
    2.3293    0.0000    0.0000 C   0  0  0  0  0  0  0  0  0  0  0  0
    2.4747    0.0000    0.0000 C   0  0  0  0  0  0  0  0  0  0  0  0
    1.8440    0.0000    0.0000 O   0  0  0  0  0  0  0  0  0  0  0  0
    3.2506    0.0000    0.0000 O   0  0  0  0  0  0  0  0  0  0  0  0
    1.9594    0.0000    0.0000 C   0  0  0  0  0  0  0  0  0  0  0  0
    2.7739    0.0000    0.0000 C   0  0  0  0  0  0  0  0  0  0  0  0
    1.9333    0.0000    0.0000 C   0  0  0  0  0  0  0  0  0  0  0  0
    2.7485    0.0000    0.0000 C   0  0  0  0  0  0  0  0  0  0  0  0
    1.3722    0.0000    0.0000 C   0  0  0  0  0  0  0  0  0  0  0  0
    1.4973    0.0000    0.0000 C   0  0  0  0  0  0  0  0  0  0  0  0
    0.8536    0.0000    0.0000 C   0  0  0  0  0  0  0  0  0  0  0  0
  1  2  1  0      
  2  3  2  0      
  3  4  1  0      
  4  5  1  0      
  5  6  1  0      
  6  7  1  0      
  6  8  2  0      
  3  9  1  0      
  9 10  2  0      
 10 11  1  0      
  2 11  1  0      
 11 12  2  0      
 12 13  1  0      
 13 14  2  0      
 14 15  1  0      
 15 16  2  0      
 14 17  1  0      
 17 18  1  0      
 17 19  2  0      
 19 20  1  0      
 13 20  1  0      
 19 21  1  0      
 21 22  2  0      
 22 23  1  0      
 23 24  1  0      
 24 25  2  0      
 25 26  1  0      
 26 27  2  0      
 27 28  1  0      
 28 29  2  0      
  9 29  1  0      
 28 30  1  0      
 30 31  1  0      
 31 32  1  0      
 32 33  1  0      
 33 34  1  0      
 33 35  2  0      
 30 36  2  0      
 26 36  1  0      
 36 37  1  0      
 24 38  1  0      
 38 39  1  0      
 38 40  2  0      
 22 40  1  0      
 40 41  1  0      
 41 42  2  0      
M  END
>  <Bioactivity>
Protoporphyrin IX, in the metabolism of porphyrin, is created by the enzyme protoporphyrinogen oxidase.

>  <CAS>
553-12-8

>  <Col>
7

>  <Formula>
C34H34N4O4

>  <ID>
T1192

>  <Index>
576

>  <MOLENAME>
Protoporphyrin IX

>  <MolWt>
562.67

>  <Pathways>
Others

>  <Plate>
PLATE 008

>  <QR code>
1151480497

>  <Receptor>
Ferritin light chain

>  <Reference>
1. ALAN R., et al. Nature 285, 17 - 21 (01 May 1980); 

>  <Row>
B

>  <SMILES>
CC1=C(CCC(O)=O)C2=NC1=CC1=C(C=C)C(C)=C(N1)C=C1NC(=CC3=NC(=C2)C(CCC(O)=O)=C3C)C(C)=C1C=C

>  <Target>
Chelator

>  <Weight>
10.1mg

$$$$
Lab-1.sdf
  ChemDraw05232018482D

  8  8  0  0  0  0  0  0  0  0999 V2000
   -0.6909    0.0000    0.0000 N   0  0  0  0  0  0  0  0  0  0  0  0
   -0.6909    0.0000    0.0000 C   0  0  0  0  0  0  0  0  0  0  0  0
    0.0235    0.0000    0.0000 C   0  0  0  0  0  0  0  0  0  0  0  0
    0.0235    0.0000    0.0000 C   0  0  0  0  0  0  0  0  0  0  0  0
    0.6909    0.0000    0.0000 C   0  0  0  0  0  0  0  0  0  0  0  0
    0.4360    0.0000    0.0000 N   0  0  0  0  0  0  0  0  0  0  0  0
   -0.3889    0.0000    0.0000 C   0  0  0  0  0  0  0  0  0  0  0  0
   -0.6439    0.0000    0.0000 N   0  0  0  0  0  0  0  0  0  0  0  0
  1  2  1  0      
  2  3  1  0      
  3  4  1  0      
  4  5  2  0      
  5  6  1  0      
  6  7  2  0      
  7  8  1  0      
  4  8  1  0      
M  END
>  <Bioactivity>
 Histamine is an organic nitrogenous compound involved in local immune responses as well as regulating physiological function in the gut and acting as a neurotransmitter.

>  <CAS>
51-45-6

>  <Col>
8

>  <Formula>
C5H9N3

>  <ID>
T0965

>  <Index>
577

>  <MOLENAME>
Histamine

>  <MolWt>
111.15

>  <Pathways>
Neuroscience

>  <Plate>
PLATE 008

>  <QR code>
1151480498

>  <Receptor>
Histamine receptor

>  <Reference>
1. Hardie RC. Nature. 1989 Jun 29;339(6227):704-6.

>  <Row>
B

>  <SMILES>
NCCC1=CN=CN1

>  <Target>
Histamine Receptor antagonist

>  <Weight>
10.3mg

$$$$
Lab-1.sdf
  ChemDraw05232018482D

 12 12  0  0  0  0  0  0  0  0999 V2000
   -1.0717    0.0000    0.0000 C   0  0  0  0  0  0  0  0  0  0  0  0
   -0.3572    0.0000    0.0000 N   0  0  0  0  0  0  0  0  0  0  0  0
   -0.3572    0.0000    0.0000 C   0  0  0  0  0  0  0  0  0  0  0  0
    0.3573    0.0000    0.0000 C   0  0  0  0  0  0  0  0  0  0  0  0
    1.0717    0.0000    0.0000 O   0  0  0  0  0  0  0  0  0  0  0  0
    0.3573    0.0000    0.0000 C   0  0  0  0  0  0  0  0  0  0  0  0
    1.0717    0.0000    0.0000 C   0  0  0  0  0  0  0  0  0  0  0  0
    1.0717    0.0000    0.0000 C   0  0  0  0  0  0  0  0  0  0  0  0
    0.3573    0.0000    0.0000 C   0  0  0  0  0  0  0  0  0  0  0  0
    0.3573    0.0000    0.0000 O   0  0  0  0  0  0  0  0  0  0  0  0
   -0.3572    0.0000    0.0000 C   0  0  0  0  0  0  0  0  0  0  0  0
   -0.3572    0.0000    0.0000 C   0  0  0  0  0  0  0  0  0  0  0  0
  1  2  1  0      
  2  3  1  0      
  3  4  1  0      
  4  5  1  0      
  4  6  1  0      
  6  7  2  0      
  7  8  1  0      
  8  9  2  0      
  9 10  1  0      
  9 11  1  0      
 11 12  2  0      
  6 12  1  0      
M  END
>  <Bioactivity>
Sympathetic alpha-adrenergic agonist with actions like PHENYLEPHRINE. It is used as a vasoconstrictor in circulatory failure, asthma, nasal congestion, and glaucoma.

>  <CAS>
94-07-5

>  <Col>
9

>  <Formula>
C9H13NO2

>  <ID>
T1287

>  <Index>
578

>  <MOLENAME>
Synephrine

>  <MolWt>
167.21

>  <Pathways>
GPCR/G Protein

>  <Plate>
PLATE 008

>  <QR code>
1151480499

>  <Receptor>
Adrenergic Receptor

>  <Reference>
1. Hong NY, et al. Biochem Biophys Res Commun, 2012, 418(4), 720-724.

>  <Row>
B

>  <SMILES>
CNCC(O)C1=CC=C(O)C=C1

>  <Target>
Adrenergic Receptor antagonist

>  <Weight>
10.3mg

$$$$
Lab-1.sdf
  ChemDraw05232018482D

 26 30  0  0  0  0  0  0  0  0999 V2000
   -2.5112    0.0000    0.0000 C   0  0  0  0  0  0  0  0  0  0  0  0
   -1.6876    0.0000    0.0000 C   0  0  0  0  0  0  0  0  0  0  0  0
   -1.3166    0.0000    0.0000 C   0  0  0  0  0  0  0  0  0  0  0  0
   -2.1402    0.0000    0.0000 C   0  0  0  0  0  0  0  0  0  0  0  0
   -2.5929    0.0000    0.0000 C   0  0  0  0  0  0  0  0  0  0  0  0
   -2.2219    0.0000    0.0000 C   0  0  0  0  0  0  0  0  0  0  0  0
   -1.3983    0.0000    0.0000 N   0  0  0  0  0  0  0  0  0  0  0  0
   -1.0273    0.0000    0.0000 C   0  0  0  0  0  0  0  0  0  0  0  0
   -0.2037    0.0000    0.0000 C   0  0  0  0  0  0  0  0  0  0  0  0
    0.2490    0.0000    0.0000 C   0  0  0  0  0  0  0  0  0  0  0  0
   -0.1220    0.0000    0.0000 C   0  0  0  0  0  0  0  0  0  0  0  0
   -0.9456    0.0000    0.0000 C   0  0  0  0  0  0  0  0  0  0  0  0
    0.3307    0.0000    0.0000 N   0  0  0  0  0  0  0  0  0  0  0  0
    1.1265    0.0000    0.0000 C   0  0  0  0  0  0  0  0  0  0  0  0
    1.8206    0.0000    0.0000 C   0  0  0  0  0  0  0  0  0  0  0  0
    2.5537    0.0000    0.0000 C   0  0  0  0  0  0  0  0  0  0  0  0
    2.5929    0.0000    0.0000 C   0  0  0  0  0  0  0  0  0  0  0  0
    1.8989    0.0000    0.0000 C   0  0  0  0  0  0  0  0  0  0  0  0
    1.1657    0.0000    0.0000 C   0  0  0  0  0  0  0  0  0  0  0  0
   -0.0403    0.0000    0.0000 C   0  0  0  0  0  0  0  0  0  0  0  0
    0.7498    0.0000    0.0000 O   0  0  0  0  0  0  0  0  0  0  0  0
   -0.8640    0.0000    0.0000 C   0  0  0  0  0  0  0  0  0  0  0  0
   -0.1369    0.0000    0.0000 C   0  0  0  0  0  0  0  0  0  0  0  0
   -0.8948    0.0000    0.0000 O   0  0  0  0  0  0  0  0  0  0  0  0
    0.5243    0.0000    0.0000 O   0  0  0  0  0  0  0  0  0  0  0  0
    0.4277    0.0000    0.0000 C   0  0  0  0  0  0  0  0  0  0  0  0
  1  2  1  0      
  2  3  1  0      
  3  4  1  0      
  4  5  1  0      
  5  6  1  0      
  6  7  1  0      
  7  8  1  0      
  8  9  1  0      
  9 10  1  0      
 10 11  2  0      
 11 12  1  0      
  3 12  1  0      
  7 12  1  0      
 11 13  1  0      
 13 14  1  0      
 14 15  2  0      
 15 16  1  0      
 16 17  2  0      
 17 18  1  0      
 18 19  2  0      
 10 19  1  0      
 14 19  1  0      
 13 20  1  0      
 20 21  1  0      
 20 22  1  0      
  3 22  1  0      
 20 23  1  0      
 23 24  2  0      
 23 25  1  0      
 25 26  1  0      
M  END
>  <Bioactivity>
Vincamine is a peripheral vasodilator, that increases blood flow to the brain.

>  <CAS>
1617-90-9

>  <Col>
10

>  <Formula>
C21H26N2O3

>  <ID>
T1286

>  <Index>
579

>  <MOLENAME>
Vincamine

>  <MolWt>
354.44

>  <Pathways>
Others

>  <Plate>
PLATE 008

>  <QR code>
1151480500

>  <Receptor>
Others

>  <Reference>
1. Pu H, et al. Luminescence. 2014 Aug;29(5):471-9. 

>  <Row>
B

>  <SMILES>
CCC12CCCN3CCC4=C(C13)N(C1=CC=CC=C41)C(O)(C2)C(=O)OC

>  <Target>
Others

>  <Weight>
10.2mg

$$$$
Lab-1.sdf
  ChemDraw05232018482D

 39 43  0  0  0  0  0  0  0  0999 V2000
    0.8989    0.0000    0.0000 C   0  0  0  0  0  0  0  0  0  0  0  0
    1.4117    0.0000    0.0000 C   0  0  0  0  0  0  0  0  0  0  0  0
    2.2278    0.0000    0.0000 O   0  0  0  0  0  0  0  0  0  0  0  0
    1.1085    0.0000    0.0000 O   0  0  0  0  0  0  0  0  0  0  0  0
    1.6213    0.0000    0.0000 C   0  0  0  0  0  0  0  0  0  0  0  0
    2.1128    0.0000    0.0000 C   0  0  0  0  0  0  0  0  0  0  0  0
    2.7754    0.0000    0.0000 O   0  0  0  0  0  0  0  0  0  0  0  0
    2.2840    0.0000    0.0000 C   0  0  0  0  0  0  0  0  0  0  0  0
    2.1896    0.0000    0.0000 C   0  0  0  0  0  0  0  0  0  0  0  0
    1.4327    0.0000    0.0000 C   0  0  0  0  0  0  0  0  0  0  0  0
    1.3383    0.0000    0.0000 O   0  0  0  0  0  0  0  0  0  0  0  0
    0.7701    0.0000    0.0000 C   0  0  0  0  0  0  0  0  0  0  0  0
    0.7681    0.0000    0.0000 C   0  0  0  0  0  0  0  0  0  0  0  0
    0.8644    0.0000    0.0000 C   0  0  0  0  0  0  0  0  0  0  0  0
    0.3147    0.0000    0.0000 C   0  0  0  0  0  0  0  0  0  0  0  0
    0.7295    0.0000    0.0000 O   0  0  0  0  0  0  0  0  0  0  0  0
    0.3193    0.0000    0.0000 C   0  0  0  0  0  0  0  0  0  0  0  0
   -0.5057    0.0000    0.0000 O   0  0  0  0  0  0  0  0  0  0  0  0
    0.7340    0.0000    0.0000 C   0  0  0  0  0  0  0  0  0  0  0  0
    0.3238    0.0000    0.0000 C   0  0  0  0  0  0  0  0  0  0  0  0
    0.7386    0.0000    0.0000 C   0  0  0  0  0  0  0  0  0  0  0  0
    1.5636    0.0000    0.0000 C   0  0  0  0  0  0  0  0  0  0  0  0
    1.9738    0.0000    0.0000 C   0  0  0  0  0  0  0  0  0  0  0  0
    1.5590    0.0000    0.0000 C   0  0  0  0  0  0  0  0  0  0  0  0
   -0.5459    0.0000    0.0000 C   0  0  0  0  0  0  0  0  0  0  0  0
   -0.2824    0.0000    0.0000 O   0  0  0  0  0  0  0  0  0  0  0  0
   -1.3141    0.0000    0.0000 C   0  0  0  0  0  0  0  0  0  0  0  0
   -2.0619    0.0000    0.0000 C   0  0  0  0  0  0  0  0  0  0  0  0
   -2.7754    0.0000    0.0000 O   0  0  0  0  0  0  0  0  0  0  0  0
   -2.0333    0.0000    0.0000 C   0  0  0  0  0  0  0  0  0  0  0  0
   -2.7506    0.0000    0.0000 C   0  0  0  0  0  0  0  0  0  0  0  0
   -1.3045    0.0000    0.0000 C   0  0  0  0  0  0  0  0  0  0  0  0
   -0.7498    0.0000    0.0000 C   0  0  0  0  0  0  0  0  0  0  0  0
   -1.1683    0.0000    0.0000 O   0  0  0  0  0  0  0  0  0  0  0  0
    0.0919    0.0000    0.0000 C   0  0  0  0  0  0  0  0  0  0  0  0
    0.2768    0.0000    0.0000 O   0  0  0  0  0  0  0  0  0  0  0  0
   -0.8675    0.0000    0.0000 C   0  0  0  0  0  0  0  0  0  0  0  0
   -0.3631    0.0000    0.0000 C   0  0  0  0  0  0  0  0  0  0  0  0
   -0.0504    0.0000    0.0000 C   0  0  0  0  0  0  0  0  0  0  0  0
  1  2  1  0      
  2  3  2  0      
  2  4  1  0      
  4  5  1  0      
  5  6  1  0      
  6  7  1  0      
  7  8  1  0      
  5  8  1  0      
  8  9  1  0      
  9 10  1  0      
 10 11  1  0      
 10 12  1  0      
 12 13  1  0      
 12 14  1  0      
  5 14  1  0      
 14 15  1  0      
 15 16  1  0      
 16 17  1  0      
 17 18  2  0      
 17 19  1  0      
 19 20  2  0      
 20 21  1  0      
 21 22  2  0      
 22 23  1  0      
 23 24  2  0      
 19 24  1  0      
 15 25  1  0      
 25 26  1  0      
 25 27  1  0      
 27 28  1  0      
 28 29  1  0      
 28 30  1  0      
 30 31  1  0      
 30 32  2  0      
 32 33  1  0      
 33 34  1  0      
 33 35  1  0      
 12 35  1  0      
 35 36  2  0      
 32 37  1  0      
 25 37  1  0      
 37 38  1  0      
 37 39  1  0      
M  END
>  <Bioactivity>
10-Deacetylbaccatin-III is an intermediate for taxol analog preparations.

>  <CAS>
32981-86-5

>  <Col>
11

>  <Formula>
C29H36O10

>  <ID>
T2197

>  <Index>
580

>  <MOLENAME>
10-Deacetylbaccatin III

>  <MolWt>
544.59

>  <Pathways>
Cell Cycle/Checkpoint

>  <Plate>
PLATE 008

>  <QR code>
1151480501

>  <Receptor>
Cytoskeleton

>  <Reference>
1. Zhang JF, et al. Cell Biol Int Rep (2010). 2010; 18(1):e00009. 

>  <Row>
B

>  <SMILES>
CC(=O)OC12COC1CC(O)C1(C)C2C(OC(=O)C2=CC=CC=C2)C2(O)CC(O)C(C)=C(C(O)C1=O)C2(C)C

>  <Target>
Cytoskeleton

>  <Weight>
9.9mg

$$$$
Lab-1.sdf
  ChemDraw05232018482D

 20 21  0  0  0  0  0  0  0  0999 V2000
    1.4289    0.0000    0.0000 C   0  0  0  0  0  0  0  0  0  0  0  0
    1.4289    0.0000    0.0000 C   0  0  0  0  0  0  0  0  0  0  0  0
    2.1433    0.0000    0.0000 C   0  0  0  0  0  0  0  0  0  0  0  0
    2.1433    0.0000    0.0000 C   0  0  0  0  0  0  0  0  0  0  0  0
    2.8578    0.0000    0.0000 O   0  0  0  0  0  0  0  0  0  0  0  0
    1.4289    0.0000    0.0000 C   0  0  0  0  0  0  0  0  0  0  0  0
    0.7144    0.0000    0.0000 C   0  0  0  0  0  0  0  0  0  0  0  0
   -0.0000    0.0000    0.0000 O   0  0  0  0  0  0  0  0  0  0  0  0
   -0.7145    0.0000    0.0000 C   0  0  0  0  0  0  0  0  0  0  0  0
   -1.4290    0.0000    0.0000 O   0  0  0  0  0  0  0  0  0  0  0  0
   -2.1433    0.0000    0.0000 C   0  0  0  0  0  0  0  0  0  0  0  0
   -2.8578    0.0000    0.0000 C   0  0  0  0  0  0  0  0  0  0  0  0
   -2.8578    0.0000    0.0000 O   0  0  0  0  0  0  0  0  0  0  0  0
   -2.1433    0.0000    0.0000 C   0  0  0  0  0  0  0  0  0  0  0  0
   -2.8578    0.0000    0.0000 O   0  0  0  0  0  0  0  0  0  0  0  0
   -1.4290    0.0000    0.0000 C   0  0  0  0  0  0  0  0  0  0  0  0
   -1.4290    0.0000    0.0000 O   0  0  0  0  0  0  0  0  0  0  0  0
   -0.7145    0.0000    0.0000 C   0  0  0  0  0  0  0  0  0  0  0  0
   -0.0000    0.0000    0.0000 O   0  0  0  0  0  0  0  0  0  0  0  0
    0.7144    0.0000    0.0000 C   0  0  0  0  0  0  0  0  0  0  0  0
  1  2  1  0      
  2  3  2  0      
  3  4  1  0      
  4  5  1  0      
  4  6  2  0      
  6  7  1  0      
  7  8  1  0      
  8  9  1  0      
  9 10  1  0      
 10 11  1  0      
 11 12  1  0      
 12 13  1  0      
 11 14  1  0      
 14 15  1  0      
 14 16  1  0      
 16 17  1  0      
 16 18  1  0      
  9 18  1  0      
 18 19  1  0      
  7 20  2  0      
  2 20  1  0      
M  END
>  <Bioactivity>
Extracted from Curculigo orchioides Gaertn. dried rhizome;Store the product in sealed, cool and dry condition.

>  <CAS>
21082-33-7

>  <Col>
2

>  <Formula>
C13H18O7

>  <ID>
T2771

>  <Index>
581

>  <MOLENAME>
Orcinol glucoside

>  <MolWt>
286.28

>  <Pathways>
Others

>  <Plate>
PLATE 008

>  <QR code>
1151480489

>  <Receptor>
Others

>  <Reference>
1. Ge JF, et al. Eur Neuropsychopharmacol. 2014 Jan;24(1):172-80. 

>  <Row>
C

>  <SMILES>
CC1=CC(O)=CC(OC2OC(CO)C(O)C(O)C2O)=C1

>  <Target>
Others

>  <Weight>
10.3mg

$$$$
Lab-1.sdf
  ChemDraw05232018482D

 45 49  0  0  0  0  0  0  0  0999 V2000
   -4.1146    0.0000    0.0000 C   0  0  0  0  0  0  0  0  0  0  0  0
   -3.6083    0.0000    0.0000 C   0  0  0  0  0  0  0  0  0  0  0  0
   -2.7910    0.0000    0.0000 C   0  0  0  0  0  0  0  0  0  0  0  0
   -3.9192    0.0000    0.0000 C   0  0  0  0  0  0  0  0  0  0  0  0
   -3.4128    0.0000    0.0000 C   0  0  0  0  0  0  0  0  0  0  0  0
   -2.5956    0.0000    0.0000 C   0  0  0  0  0  0  0  0  0  0  0  0
   -2.0891    0.0000    0.0000 C   0  0  0  0  0  0  0  0  0  0  0  0
   -2.7405    0.0000    0.0000 C   0  0  0  0  0  0  0  0  0  0  0  0
   -1.4378    0.0000    0.0000 O   0  0  0  0  0  0  0  0  0  0  0  0
   -1.5827    0.0000    0.0000 C   0  0  0  0  0  0  0  0  0  0  0  0
   -1.8121    0.0000    0.0000 C   0  0  0  0  0  0  0  0  0  0  0  0
   -1.1292    0.0000    0.0000 C   0  0  0  0  0  0  0  0  0  0  0  0
   -0.4779    0.0000    0.0000 C   0  0  0  0  0  0  0  0  0  0  0  0
   -0.2802    0.0000    0.0000 C   0  0  0  0  0  0  0  0  0  0  0  0
   -0.7582    0.0000    0.0000 C   0  0  0  0  0  0  0  0  0  0  0  0
   -0.2264    0.0000    0.0000 C   0  0  0  0  0  0  0  0  0  0  0  0
   -0.5067    0.0000    0.0000 O   0  0  0  0  0  0  0  0  0  0  0  0
    0.5858    0.0000    0.0000 C   0  0  0  0  0  0  0  0  0  0  0  0
    0.8661    0.0000    0.0000 C   0  0  0  0  0  0  0  0  0  0  0  0
    1.6782    0.0000    0.0000 C   0  0  0  0  0  0  0  0  0  0  0  0
    1.3979    0.0000    0.0000 C   0  0  0  0  0  0  0  0  0  0  0  0
    2.2101    0.0000    0.0000 C   0  0  0  0  0  0  0  0  0  0  0  0
    3.0222    0.0000    0.0000 C   0  0  0  0  0  0  0  0  0  0  0  0
    3.3025    0.0000    0.0000 C   0  0  0  0  0  0  0  0  0  0  0  0
    4.1146    0.0000    0.0000 O   0  0  0  0  0  0  0  0  0  0  0  0
    2.7707    0.0000    0.0000 C   0  0  0  0  0  0  0  0  0  0  0  0
    3.4842    0.0000    0.0000 C   0  0  0  0  0  0  0  0  0  0  0  0
    2.4867    0.0000    0.0000 C   0  0  0  0  0  0  0  0  0  0  0  0
    1.9585    0.0000    0.0000 C   0  0  0  0  0  0  0  0  0  0  0  0
    1.4267    0.0000    0.0000 C   0  0  0  0  0  0  0  0  0  0  0  0
    0.6145    0.0000    0.0000 C   0  0  0  0  0  0  0  0  0  0  0  0
    0.3342    0.0000    0.0000 C   0  0  0  0  0  0  0  0  0  0  0  0
    0.0233    0.0000    0.0000 C   0  0  0  0  0  0  0  0  0  0  0  0
    1.7070    0.0000    0.0000 O   0  0  0  0  0  0  0  0  0  0  0  0
    1.1751    0.0000    0.0000 C   0  0  0  0  0  0  0  0  0  0  0  0
    1.4554    0.0000    0.0000 O   0  0  0  0  0  0  0  0  0  0  0  0
    0.9236    0.0000    0.0000 C   0  0  0  0  0  0  0  0  0  0  0  0
    1.2039    0.0000    0.0000 C   0  0  0  0  0  0  0  0  0  0  0  0
    2.0160    0.0000    0.0000 O   0  0  0  0  0  0  0  0  0  0  0  0
    0.1115    0.0000    0.0000 C   0  0  0  0  0  0  0  0  0  0  0  0
   -0.4203    0.0000    0.0000 O   0  0  0  0  0  0  0  0  0  0  0  0
   -0.1688    0.0000    0.0000 C   0  0  0  0  0  0  0  0  0  0  0  0
   -0.9809    0.0000    0.0000 O   0  0  0  0  0  0  0  0  0  0  0  0
    0.3630    0.0000    0.0000 C   0  0  0  0  0  0  0  0  0  0  0  0
    0.0827    0.0000    0.0000 O   0  0  0  0  0  0  0  0  0  0  0  0
  1  2  1  0      
  2  3  1  0      
  2  4  2  0      
  4  5  1  0      
  5  6  1  0      
  6  7  1  0      
  7  8  1  0      
  7  9  1  0      
  7 10  1  0      
 10 11  1  0      
 11 12  1  0      
 12 13  1  0      
 13 14  1  0      
 13 15  1  0      
 10 15  1  0      
 15 16  1  0      
 16 17  1  0      
 16 18  1  0      
 18 19  1  0      
 19 20  1  0      
 20 21  1  0      
 20 22  1  0      
 22 23  1  0      
 23 24  1  0      
 24 25  1  0      
 24 26  1  0      
 26 27  1  0      
 26 28  1  0      
 26 29  1  0      
 20 29  1  0      
 29 30  1  0      
 30 31  1  0      
 31 32  1  0      
 13 32  1  0      
 19 32  1  0      
 32 33  1  0      
 30 34  1  0      
 34 35  1  0      
 35 36  1  0      
 36 37  1  0      
 37 38  1  0      
 38 39  1  0      
 37 40  1  0      
 40 41  1  0      
 40 42  1  0      
 42 43  1  0      
 42 44  1  0      
 35 44  1  0      
 44 45  1  0      
M  END
>  <Bioactivity>
Ginsenoside Rg1, one of the main constituents of Panax ginseng, exhibits anti-inflammatory effect. Extracted from Panax ginseng C.A.Mey.;Suitability:Water,methanol,ethanol;Store the product in sealed,
cool and dry condition

>  <CAS>
63223-86-9

>  <Col>
3

>  <Formula>
C36H62O9

>  <ID>
T2932

>  <Index>
582

>  <MOLENAME>
Ginsenoside Rh1

>  <MolWt>
638.87

>  <Pathways>
Others

>  <Plate>
PLATE 008

>  <QR code>
1151480488

>  <Receptor>
Others

>  <Reference>
1. Luo SL, et al. Lett Appl Microbiol. 2015 Jan;60(1):72-8.

>  <Row>
C

>  <SMILES>
CC(C)=CCCC(C)(O)C1CCC2(C)C1C(O)CC1C3(C)CCC(O)C(C)(C)C3C(CC21C)OC1OC(CO)C(O)C(O)C1O

>  <Target>
Others

>  <Weight>
10.2mg

$$$$
Lab-1.sdf
  ChemDraw05232018482D

 65 72  0  0  0  0  0  0  0  0999 V2000
   -1.3006    0.0000    0.0000 C   0  0  0  0  0  0  0  0  0  0  0  0
   -1.4437    0.0000    0.0000 C   0  0  0  0  0  0  0  0  0  0  0  0
   -2.2190    0.0000    0.0000 C   0  0  0  0  0  0  0  0  0  0  0  0
   -1.8562    0.0000    0.0000 C   0  0  0  0  0  0  0  0  0  0  0  0
   -1.4437    0.0000    0.0000 C   0  0  0  0  0  0  0  0  0  0  0  0
   -0.6187    0.0000    0.0000 C   0  0  0  0  0  0  0  0  0  0  0  0
   -0.2063    0.0000    0.0000 C   0  0  0  0  0  0  0  0  0  0  0  0
    0.6187    0.0000    0.0000 C   0  0  0  0  0  0  0  0  0  0  0  0
    1.0312    0.0000    0.0000 C   0  0  0  0  0  0  0  0  0  0  0  0
    1.4437    0.0000    0.0000 C   0  0  0  0  0  0  0  0  0  0  0  0
    0.6187    0.0000    0.0000 C   0  0  0  0  0  0  0  0  0  0  0  0
    1.0312    0.0000    0.0000 C   0  0  0  0  0  0  0  0  0  0  0  0
    1.8562    0.0000    0.0000 C   0  0  0  0  0  0  0  0  0  0  0  0
    2.2687    0.0000    0.0000 C   0  0  0  0  0  0  0  0  0  0  0  0
    3.0937    0.0000    0.0000 C   0  0  0  0  0  0  0  0  0  0  0  0
    2.6812    0.0000    0.0000 C   0  0  0  0  0  0  0  0  0  0  0  0
    3.5062    0.0000    0.0000 C   0  0  0  0  0  0  0  0  0  0  0  0
    4.3312    0.0000    0.0000 C   0  0  0  0  0  0  0  0  0  0  0  0
    4.7437    0.0000    0.0000 C   0  0  0  0  0  0  0  0  0  0  0  0
    5.5687    0.0000    0.0000 O   0  0  0  0  0  0  0  0  0  0  0  0
    5.9812    0.0000    0.0000 C   0  0  0  0  0  0  0  0  0  0  0  0
    5.5687    0.0000    0.0000 O   0  0  0  0  0  0  0  0  0  0  0  0
    5.9812    0.0000    0.0000 C   0  0  0  0  0  0  0  0  0  0  0  0
    6.8062    0.0000    0.0000 C   0  0  0  0  0  0  0  0  0  0  0  0
    7.2187    0.0000    0.0000 O   0  0  0  0  0  0  0  0  0  0  0  0
    7.2187    0.0000    0.0000 C   0  0  0  0  0  0  0  0  0  0  0  0
    8.0437    0.0000    0.0000 O   0  0  0  0  0  0  0  0  0  0  0  0
    6.8062    0.0000    0.0000 C   0  0  0  0  0  0  0  0  0  0  0  0
    7.2187    0.0000    0.0000 O   0  0  0  0  0  0  0  0  0  0  0  0
    4.3312    0.0000    0.0000 C   0  0  0  0  0  0  0  0  0  0  0  0
    4.1879    0.0000    0.0000 C   0  0  0  0  0  0  0  0  0  0  0  0
    5.1064    0.0000    0.0000 C   0  0  0  0  0  0  0  0  0  0  0  0
    5.2497    0.0000    0.0000 O   0  0  0  0  0  0  0  0  0  0  0  0
    3.5062    0.0000    0.0000 C   0  0  0  0  0  0  0  0  0  0  0  0
    3.0937    0.0000    0.0000 C   0  0  0  0  0  0  0  0  0  0  0  0
    2.2687    0.0000    0.0000 C   0  0  0  0  0  0  0  0  0  0  0  0
    1.8562    0.0000    0.0000 C   0  0  0  0  0  0  0  0  0  0  0  0
    1.9424    0.0000    0.0000 C   0  0  0  0  0  0  0  0  0  0  0  0
   -0.2063    0.0000    0.0000 C   0  0  0  0  0  0  0  0  0  0  0  0
   -0.6187    0.0000    0.0000 C   0  0  0  0  0  0  0  0  0  0  0  0
   -1.0312    0.0000    0.0000 C   0  0  0  0  0  0  0  0  0  0  0  0
   -0.6187    0.0000    0.0000 O   0  0  0  0  0  0  0  0  0  0  0  0
   -1.8562    0.0000    0.0000 O   0  0  0  0  0  0  0  0  0  0  0  0
   -2.2687    0.0000    0.0000 C   0  0  0  0  0  0  0  0  0  0  0  0
   -3.0937    0.0000    0.0000 O   0  0  0  0  0  0  0  0  0  0  0  0
   -3.5062    0.0000    0.0000 C   0  0  0  0  0  0  0  0  0  0  0  0
   -4.3312    0.0000    0.0000 C   0  0  0  0  0  0  0  0  0  0  0  0
   -4.7437    0.0000    0.0000 O   0  0  0  0  0  0  0  0  0  0  0  0
   -5.5687    0.0000    0.0000 C   0  0  0  0  0  0  0  0  0  0  0  0
   -5.9812    0.0000    0.0000 O   0  0  0  0  0  0  0  0  0  0  0  0
   -6.8062    0.0000    0.0000 C   0  0  0  0  0  0  0  0  0  0  0  0
   -7.2187    0.0000    0.0000 C   0  0  0  0  0  0  0  0  0  0  0  0
   -8.0437    0.0000    0.0000 O   0  0  0  0  0  0  0  0  0  0  0  0
   -7.2187    0.0000    0.0000 C   0  0  0  0  0  0  0  0  0  0  0  0
   -8.0437    0.0000    0.0000 O   0  0  0  0  0  0  0  0  0  0  0  0
   -6.8062    0.0000    0.0000 C   0  0  0  0  0  0  0  0  0  0  0  0
   -7.2187    0.0000    0.0000 O   0  0  0  0  0  0  0  0  0  0  0  0
   -5.9812    0.0000    0.0000 C   0  0  0  0  0  0  0  0  0  0  0  0
   -5.5687    0.0000    0.0000 O   0  0  0  0  0  0  0  0  0  0  0  0
   -3.0937    0.0000    0.0000 C   0  0  0  0  0  0  0  0  0  0  0  0
   -3.5062    0.0000    0.0000 O   0  0  0  0  0  0  0  0  0  0  0  0
   -2.2687    0.0000    0.0000 C   0  0  0  0  0  0  0  0  0  0  0  0
   -1.8562    0.0000    0.0000 O   0  0  0  0  0  0  0  0  0  0  0  0
   -1.8562    0.0000    0.0000 C   0  0  0  0  0  0  0  0  0  0  0  0
   -1.0312    0.0000    0.0000 O   0  0  0  0  0  0  0  0  0  0  0  0
  1  2  1  0      
  2  3  1  0      
  2  4  1  0      
  4  5  1  0      
  5  6  1  0      
  6  7  1  0      
  7  8  1  0      
  8  9  1  0      
  9 10  1  0      
  9 11  1  0      
 11 12  2  0      
 12 13  1  0      
 13 14  1  0      
 14 15  1  0      
 15 16  1  0      
 15 17  1  0      
 17 18  1  0      
 18 19  1  0      
 19 20  1  0      
 20 21  1  0      
 21 22  1  0      
 22 23  1  0      
 23 24  1  0      
 24 25  1  0      
 24 26  1  0      
 26 27  1  0      
 26 28  1  0      
 21 28  1  0      
 28 29  1  0      
 19 30  1  0      
 30 31  1  0      
 30 32  1  0      
 32 33  1  0      
 30 34  1  0      
 15 34  1  0      
 34 35  1  0      
 35 36  1  0      
 36 37  1  0      
  9 37  1  0      
 14 37  1  0      
 37 38  1  0      
 11 39  1  0      
  6 39  1  0      
 39 40  1  0      
  2 40  1  0      
  6 41  1  0      
 41 42  2  0      
 41 43  1  0      
 43 44  1  0      
 44 45  1  0      
 45 46  1  0      
 46 47  1  0      
 47 48  1  0      
 48 49  1  0      
 49 50  1  0      
 50 51  1  0      
 51 52  1  0      
 52 53  1  0      
 51 54  1  0      
 54 55  1  0      
 54 56  1  0      
 56 57  1  0      
 56 58  1  0      
 49 58  1  0      
 58 59  1  0      
 46 60  1  0      
 60 61  1  0      
 60 62  1  0      
 62 63  1  0      
 62 64  1  0      
 44 64  1  0      
 64 65  1  0      
M  END
>  <Bioactivity>
Extracted from Dipsacus asperoides C. Y. Cheng et T .M. Ai.;Suitability:1g dissolved in 87ml water,3ml boiling water;Store the product in sealed,cool and dry condition

>  <CAS>
39524-08-8

>  <Col>
4

>  <Formula>
C47H76O18

>  <ID>
T2698

>  <Index>
583

>  <MOLENAME>
Asperosaponin ¢ö

>  <MolWt>
929.1

>  <Pathways>
Others

>  <Plate>
PLATE 008

>  <QR code>
1151480487

>  <Receptor>
Others

>  <Reference>
1. Song L, et al. Nat Prod Commun. 2014 Jun;9(6):773-8.

>  <Row>
C

>  <SMILES>
CC1(C)CCC2(CCC3(C)C(=CCC4C5(C)CCC(OC6OCC(O)C(O)C6O)C(C)(CO)C5CCC34C)C2C1)C(=O)OC1OC(COC2OC(CO)C(O)C(O)C2O)C(O)C(O)C1O

>  <Target>
Others

>  <Weight>
10.3mg

$$$$
Lab-1.sdf
  ChemDraw05232018482D

 29 34  0  0  0  0  0  0  0  0999 V2000
   -1.6632    0.0000    0.0000 C   0  0  0  0  0  0  0  0  0  0  0  0
   -1.7121    0.0000    0.0000 C   0  0  0  0  0  0  0  0  0  0  0  0
   -2.4072    0.0000    0.0000 C   0  0  0  0  0  0  0  0  0  0  0  0
   -3.1752    0.0000    0.0000 O   0  0  0  0  0  0  0  0  0  0  0  0
   -2.1992    0.0000    0.0000 O   0  0  0  0  0  0  0  0  0  0  0  0
   -1.3758    0.0000    0.0000 C   0  0  0  0  0  0  0  0  0  0  0  0
   -0.5427    0.0000    0.0000 C   0  0  0  0  0  0  0  0  0  0  0  0
    0.2129    0.0000    0.0000 C   0  0  0  0  0  0  0  0  0  0  0  0
    0.0178    0.0000    0.0000 C   0  0  0  0  0  0  0  0  0  0  0  0
    0.7321    0.0000    0.0000 C   0  0  0  0  0  0  0  0  0  0  0  0
    1.3373    0.0000    0.0000 C   0  0  0  0  0  0  0  0  0  0  0  0
    2.1360    0.0000    0.0000 C   0  0  0  0  0  0  0  0  0  0  0  0
    2.9347    0.0000    0.0000 C   0  0  0  0  0  0  0  0  0  0  0  0
    2.3422    0.0000    0.0000 C   0  0  0  0  0  0  0  0  0  0  0  0
    1.9298    0.0000    0.0000 C   0  0  0  0  0  0  0  0  0  0  0  0
    1.0645    0.0000    0.0000 C   0  0  0  0  0  0  0  0  0  0  0  0
    1.9082    0.0000    0.0000 C   0  0  0  0  0  0  0  0  0  0  0  0
    2.7281    0.0000    0.0000 O   0  0  0  0  0  0  0  0  0  0  0  0
    2.3522    0.0000    0.0000 C   0  0  0  0  0  0  0  0  0  0  0  0
    3.1752    0.0000    0.0000 O   0  0  0  0  0  0  0  0  0  0  0  0
    1.8173    0.0000    0.0000 O   0  0  0  0  0  0  0  0  0  0  0  0
    1.0547    0.0000    0.0000 C   0  0  0  0  0  0  0  0  0  0  0  0
    0.2900    0.0000    0.0000 O   0  0  0  0  0  0  0  0  0  0  0  0
   -0.2211    0.0000    0.0000 C   0  0  0  0  0  0  0  0  0  0  0  0
   -0.8603    0.0000    0.0000 C   0  0  0  0  0  0  0  0  0  0  0  0
   -1.6105    0.0000    0.0000 O   0  0  0  0  0  0  0  0  0  0  0  0
   -0.8437    0.0000    0.0000 O   0  0  0  0  0  0  0  0  0  0  0  0
   -1.0748    0.0000    0.0000 C   0  0  0  0  0  0  0  0  0  0  0  0
   -0.7415    0.0000    0.0000 O   0  0  0  0  0  0  0  0  0  0  0  0
  1  2  1  0      
  2  3  1  0      
  3  4  2  0      
  3  5  1  0      
  5  6  1  0      
  6  7  1  0      
  7  8  1  0      
  8  9  1  0      
  9 10  1  0      
 10 11  1  0      
 11 12  1  0      
 12 13  1  0      
 12 14  1  0      
 12 15  1  0      
 11 16  1  0      
  8 16  1  0      
 16 17  1  0      
 17 18  1  0      
 17 19  1  0      
 19 20  2  0      
 19 21  1  0      
 21 22  1  0      
 16 22  1  0      
 22 23  1  0      
 23 24  1  0      
  8 24  1  0      
 24 25  1  0      
 25 26  2  0      
 25 27  1  0      
  9 27  1  0      
 24 28  1  0      
  2 28  1  0      
  6 28  1  0      
 28 29  1  0      
M  END
>  <Bioactivity>
Ginkgolide A is an extract from in Ginkgo biloba and a g-aminobutyric acid (GABA) antagonist.

>  <CAS>
15291-75-5

>  <Col>
5

>  <Formula>
C20H24O9

>  <ID>
T2749

>  <Index>
584

>  <MOLENAME>
Ginkgolide A

>  <MolWt>
408.4

>  <Pathways>
Neuroscience

>  <Plate>
PLATE 008

>  <QR code>
1151480486

>  <Receptor>
GABA

>  <Reference>
1. Zhao Q, Gao C, Cui Z. Int Immunopharmacol. 2015 Apr;25(2):242-8.

>  <Row>
C

>  <SMILES>
CC1C(=O)OC2CC34C5CC(C(C)(C)C)C33C(O)C(=O)OC3OC4(C(=O)O5)C12O

>  <Target>
GABAR antagonist

>  <Weight>
10.4mg

$$$$
Lab-1.sdf
  ChemDraw05232018482D

 26 28  0  0  0  0  0  0  0  0999 V2000
   -3.5723    0.0000    0.0000 O   0  0  0  0  0  0  0  0  0  0  0  0
   -2.8578    0.0000    0.0000 C   0  0  0  0  0  0  0  0  0  0  0  0
   -2.1433    0.0000    0.0000 C   0  0  0  0  0  0  0  0  0  0  0  0
   -1.4289    0.0000    0.0000 O   0  0  0  0  0  0  0  0  0  0  0  0
   -0.7145    0.0000    0.0000 C   0  0  0  0  0  0  0  0  0  0  0  0
   -0.0000    0.0000    0.0000 O   0  0  0  0  0  0  0  0  0  0  0  0
    0.7145    0.0000    0.0000 C   0  0  0  0  0  0  0  0  0  0  0  0
    0.7145    0.0000    0.0000 O   0  0  0  0  0  0  0  0  0  0  0  0
    1.4289    0.0000    0.0000 C   0  0  0  0  0  0  0  0  0  0  0  0
    2.1433    0.0000    0.0000 C   0  0  0  0  0  0  0  0  0  0  0  0
    2.8578    0.0000    0.0000 C   0  0  0  0  0  0  0  0  0  0  0  0
    2.8578    0.0000    0.0000 O   0  0  0  0  0  0  0  0  0  0  0  0
    3.5723    0.0000    0.0000 O   0  0  0  0  0  0  0  0  0  0  0  0
    3.5723    0.0000    0.0000 C   0  0  0  0  0  0  0  0  0  0  0  0
    2.8578    0.0000    0.0000 C   0  0  0  0  0  0  0  0  0  0  0  0
    2.1433    0.0000    0.0000 C   0  0  0  0  0  0  0  0  0  0  0  0
    2.1433    0.0000    0.0000 O   0  0  0  0  0  0  0  0  0  0  0  0
    1.4289    0.0000    0.0000 C   0  0  0  0  0  0  0  0  0  0  0  0
    1.4289    0.0000    0.0000 C   0  0  0  0  0  0  0  0  0  0  0  0
    0.7145    0.0000    0.0000 C   0  0  0  0  0  0  0  0  0  0  0  0
   -0.7145    0.0000    0.0000 C   0  0  0  0  0  0  0  0  0  0  0  0
   -0.0000    0.0000    0.0000 O   0  0  0  0  0  0  0  0  0  0  0  0
   -1.4289    0.0000    0.0000 C   0  0  0  0  0  0  0  0  0  0  0  0
   -1.4289    0.0000    0.0000 O   0  0  0  0  0  0  0  0  0  0  0  0
   -2.1433    0.0000    0.0000 C   0  0  0  0  0  0  0  0  0  0  0  0
   -2.8578    0.0000    0.0000 O   0  0  0  0  0  0  0  0  0  0  0  0
  1  2  1  0      
  2  3  1  0      
  3  4  1  0      
  4  5  1  0      
  5  6  1  0      
  6  7  1  0      
  7  8  1  0      
  8  9  1  0      
  9 10  2  0      
 10 11  1  0      
 11 12  2  0      
 11 13  1  0      
 13 14  1  0      
 14 15  1  0      
 15 16  1  0      
 10 16  1  0      
 16 17  1  0      
 16 18  1  0      
  7 18  1  0      
 18 19  1  0      
 19 20  2  0      
  5 21  1  0      
 21 22  1  0      
 21 23  1  0      
 23 24  1  0      
 23 25  1  0      
  3 25  1  0      
 25 26  1  0      
M  END
>  <Bioactivity>
Extracted from Gentianaceae Swertia L. Swertia mussotii Franch;Suitability:Methanol,ethanol;Store the product in sealed,cool and dry condition

>  <CAS>
17388-39-5

>  <Col>
6

>  <Formula>
C16H22O10

>  <ID>
T2756

>  <Index>
585

>  <MOLENAME>
Swertiamarin

>  <MolWt>
374.34

>  <Pathways>
Others

>  <Plate>
PLATE 008

>  <QR code>
1151480485

>  <Receptor>
Others

>  <Reference>
1. Saravanan S, et al. Eur J Pharm Sci. 2014 Jun 2;56:70-86. 

>  <Row>
C

>  <SMILES>
OCC1OC(OC2OC=C3C(=O)OCCC3(O)C2C=C)C(O)C(O)C1O

>  <Target>
Others

>  <Weight>
10.2mg

$$$$
Lab-1.sdf
  ChemDraw05232018482D

 27 29  0  0  0  0  0  0  0  0999 V2000
    3.7612    0.0000    0.0000 Na  0  3  0  0  0  0  0  0  0  0  0  0
    1.7104    0.0000    0.0000 C   0  0  0  0  0  0  0  0  0  0  0  0
    1.2040    0.0000    0.0000 C   0  0  0  0  0  0  0  0  0  0  0  0
    1.4333    0.0000    0.0000 C   0  0  0  0  0  0  0  0  0  0  0  0
    0.7505    0.0000    0.0000 O   0  0  0  0  0  0  0  0  0  0  0  0
    0.0991    0.0000    0.0000 C   0  0  0  0  0  0  0  0  0  0  0  0
    0.3794    0.0000    0.0000 C   0  0  0  0  0  0  0  0  0  0  0  0
   -0.1524    0.0000    0.0000 C   0  0  0  0  0  0  0  0  0  0  0  0
    0.1279    0.0000    0.0000 O   0  0  0  0  0  0  0  0  0  0  0  0
   -0.9645    0.0000    0.0000 C   0  0  0  0  0  0  0  0  0  0  0  0
   -1.4963    0.0000    0.0000 O   0  0  0  0  0  0  0  0  0  0  0  0
   -1.2448    0.0000    0.0000 C   0  0  0  0  0  0  0  0  0  0  0  0
   -0.7130    0.0000    0.0000 C   0  0  0  0  0  0  0  0  0  0  0  0
   -0.9933    0.0000    0.0000 C   0  0  0  0  0  0  0  0  0  0  0  0
   -1.8054    0.0000    0.0000 C   0  0  0  0  0  0  0  0  0  0  0  0
   -2.3373    0.0000    0.0000 C   0  0  0  0  0  0  0  0  0  0  0  0
   -2.0569    0.0000    0.0000 C   0  0  0  0  0  0  0  0  0  0  0  0
   -2.5888    0.0000    0.0000 C   0  0  0  0  0  0  0  0  0  0  0  0
   -3.4009    0.0000    0.0000 C   0  0  0  0  0  0  0  0  0  0  0  0
   -3.6812    0.0000    0.0000 C   0  0  0  0  0  0  0  0  0  0  0  0
   -3.1494    0.0000    0.0000 C   0  0  0  0  0  0  0  0  0  0  0  0
   -3.7612    0.0000    0.0000 C   0  0  0  0  0  0  0  0  0  0  0  0
   -3.0326    0.0000    0.0000 C   0  0  0  0  0  0  0  0  0  0  0  0
    2.2093    0.0000    0.0000 S   0  0  0  0  0  0  0  0  0  0  0  0
    2.9853    0.0000    0.0000 O   0  5  0  0  0  0  0  0  0  0  0  0
    1.9289    0.0000    0.0000 O   0  0  0  0  0  0  0  0  0  0  0  0
    2.4896    0.0000    0.0000 O   0  0  0  0  0  0  0  0  0  0  0  0
  2  3  1  0      
  3  4  2  0      
  4  5  1  0      
  5  6  1  0      
  6  7  2  0      
  3  7  1  0      
  7  8  1  0      
  8  9  2  0      
  8 10  1  0      
 10 11  2  0      
 10 12  1  0      
 12 13  2  0      
  6 13  1  0      
 13 14  1  0      
 14 15  2  0      
 15 16  1  0      
 16 17  2  0      
 12 17  1  0      
 17 18  1  0      
 18 19  1  0      
 19 20  1  0      
 20 21  1  0      
 16 21  1  0      
 21 22  1  0      
 21 23  1  0      
  4 24  1  0      
 24 25  1  0      
 24 26  2  0      
 24 27  2  0      
M  CHG  2   1   1  25  -1
M  END
>  <Bioactivity>
Extracted from Savia miltiorrhiza;Suitability:Water;Store the product in sealed,cool and dry condition

>  <CAS>
69659-80-9

>  <Col>
7

>  <Formula>
C19H17O6S?Na

>  <ID>
T2946

>  <Index>
586

>  <MOLENAME>
Tanshinone IIA-sulfonic sodium

>  <MolWt>
396.39

>  <Pathways>
Others

>  <Plate>
PLATE 008

>  <QR code>
1151480484

>  <Receptor>
Others

>  <Reference>
1. Weng YS, et al. Am J Chin Med. 2015 Nov 30:1550089. 

>  <Row>
C

>  <SMILES>
[Na+].CC1=C(OC2=C1C(=O)C(=O)C1=C2C=CC2=C1CCCC2(C)C)S([O-])(=O)=O

>  <Target>
Others

>  <Weight>
10.2mg

$$$$
Lab-1.sdf
  ChemDraw05232018482D

 45 51  0  0  0  0  0  0  0  0999 V2000
   -2.4898    0.0000    0.0000 C   0  0  0  0  0  0  0  0  0  0  0  0
   -2.5910    0.0000    0.0000 C   0  0  0  0  0  0  0  0  0  0  0  0
   -2.1792    0.0000    0.0000 N   0  0  0  0  0  0  0  0  0  0  0  0
   -2.7217    0.0000    0.0000 C   0  0  0  0  0  0  0  0  0  0  0  0
   -2.3727    0.0000    0.0000 C   0  0  0  0  0  0  0  0  0  0  0  0
   -3.1408    0.0000    0.0000 C   0  0  0  0  0  0  0  0  0  0  0  0
   -3.5948    0.0000    0.0000 O   0  0  0  0  0  0  0  0  0  0  0  0
   -3.2381    0.0000    0.0000 C   0  0  0  0  0  0  0  0  0  0  0  0
   -2.1486    0.0000    0.0000 C   0  0  0  0  0  0  0  0  0  0  0  0
   -1.3712    0.0000    0.0000 C   0  0  0  0  0  0  0  0  0  0  0  0
   -0.8627    0.0000    0.0000 C   0  0  0  0  0  0  0  0  0  0  0  0
   -0.1944    0.0000    0.0000 O   0  0  0  0  0  0  0  0  0  0  0  0
    0.1849    0.0000    0.0000 C   0  0  0  0  0  0  0  0  0  0  0  0
   -1.0647    0.0000    0.0000 C   0  0  0  0  0  0  0  0  0  0  0  0
   -0.3086    0.0000    0.0000 C   0  0  0  0  0  0  0  0  0  0  0  0
    0.3939    0.0000    0.0000 C   0  0  0  0  0  0  0  0  0  0  0  0
    1.1867    0.0000    0.0000 C   0  0  0  0  0  0  0  0  0  0  0  0
    1.9319    0.0000    0.0000 O   0  0  0  0  0  0  0  0  0  0  0  0
    0.7712    0.0000    0.0000 C   0  0  0  0  0  0  0  0  0  0  0  0
    0.1487    0.0000    0.0000 C   0  0  0  0  0  0  0  0  0  0  0  0
    0.0691    0.0000    0.0000 C   0  0  0  0  0  0  0  0  0  0  0  0
    0.8561    0.0000    0.0000 C   0  0  0  0  0  0  0  0  0  0  0  0
    1.4536    0.0000    0.0000 C   0  0  0  0  0  0  0  0  0  0  0  0
    2.2734    0.0000    0.0000 O   0  0  0  0  0  0  0  0  0  0  0  0
    2.6572    0.0000    0.0000 C   0  0  0  0  0  0  0  0  0  0  0  0
    0.0244    0.0000    0.0000 O   0  0  0  0  0  0  0  0  0  0  0  0
    0.4259    0.0000    0.0000 C   0  0  0  0  0  0  0  0  0  0  0  0
    1.2229    0.0000    0.0000 C   0  0  0  0  0  0  0  0  0  0  0  0
    0.0075    0.0000    0.0000 O   0  0  0  0  0  0  0  0  0  0  0  0
   -0.8079    0.0000    0.0000 C   0  0  0  0  0  0  0  0  0  0  0  0
   -1.7828    0.0000    0.0000 C   0  0  0  0  0  0  0  0  0  0  0  0
   -2.6478    0.0000    0.0000 O   0  0  0  0  0  0  0  0  0  0  0  0
   -3.5188    0.0000    0.0000 C   0  0  0  0  0  0  0  0  0  0  0  0
   -1.6960    0.0000    0.0000 C   0  0  0  0  0  0  0  0  0  0  0  0
   -1.3651    0.0000    0.0000 C   0  0  0  0  0  0  0  0  0  0  0  0
    0.5161    0.0000    0.0000 C   0  0  0  0  0  0  0  0  0  0  0  0
   -0.3513    0.0000    0.0000 O   0  0  0  0  0  0  0  0  0  0  0  0
    1.3521    0.0000    0.0000 C   0  0  0  0  0  0  0  0  0  0  0  0
    1.4238    0.0000    0.0000 C   0  0  0  0  0  0  0  0  0  0  0  0
    2.1474    0.0000    0.0000 C   0  0  0  0  0  0  0  0  0  0  0  0
    2.7993    0.0000    0.0000 C   0  0  0  0  0  0  0  0  0  0  0  0
    3.5230    0.0000    0.0000 O   0  0  0  0  0  0  0  0  0  0  0  0
    3.5948    0.0000    0.0000 C   0  0  0  0  0  0  0  0  0  0  0  0
    2.7275    0.0000    0.0000 C   0  0  0  0  0  0  0  0  0  0  0  0
    2.0039    0.0000    0.0000 C   0  0  0  0  0  0  0  0  0  0  0  0
  1  2  1  0      
  2  3  1  0      
  3  4  1  0      
  4  5  1  0      
  5  6  1  0      
  6  7  1  0      
  7  8  1  0      
  5  9  1  0      
  9 10  1  0      
 10 11  1  0      
 11 12  1  0      
 12 13  1  0      
 11 14  1  0      
 14 15  1  0      
 15 16  1  0      
 16 17  1  0      
 17 18  1  0      
 17 19  1  0      
 19 20  1  0      
 15 20  1  0      
 20 21  1  0      
 21 22  1  0      
 22 23  1  0      
 17 23  1  0      
 23 24  1  0      
 24 25  1  0      
 21 26  1  0      
 26 27  1  0      
 27 28  1  0      
 27 29  2  0      
 21 30  1  0      
 30 31  1  0      
 31 32  1  0      
 32 33  1  0      
 31 34  1  0      
  5 34  1  0      
 14 34  1  0      
 30 35  1  0      
  3 35  1  0      
 14 35  1  0      
 19 36  1  0      
 36 37  2  0      
 36 38  1  0      
 38 39  2  0      
 39 40  1  0      
 40 41  2  0      
 41 42  1  0      
 42 43  1  0      
 41 44  1  0      
 44 45  2  0      
 38 45  1  0      
M  END
>  <Bioactivity>
Bulleyaconitine A is an analgesic and antiinflammatory drug isolated from Aconitum plants; has several potential targets, including voltage-gated Na+ channels. Extracted from Aconitumkusnezoffii Reich
b.;Suitability:Ethanol,chloroform,ether;Store the product in sealed,cool and dry condition

>  <CAS>
107668-79-1

>  <Col>
8

>  <Formula>
C35H49NO9

>  <ID>
T3021

>  <Index>
587

>  <MOLENAME>
Bulleyaconi cine A

>  <MolWt>
627.76

>  <Pathways>
Membrane Transporter/Ion Channel

>  <Plate>
PLATE 008

>  <QR code>
1151480483

>  <Receptor>
Sodium Channel

>  <Reference>
1. Wang CF, et al. Anesth Analg. 2008 Oct;107(4):1397-405.

>  <Row>
C

>  <SMILES>
CCN1CC2(COC)CCC(OC)C34C5CC6(O)C(C5C(CC6OC)(OC(C)=O)C(C(OC)C23)C14)C(=O)C1=CC=C(OC)C=C1

>  <Target>
Sodium Channel

>  <Weight>
10.3mg

$$$$
Lab-1.sdf
  ChemDraw05232018482D

 31 36  0  0  0  0  0  0  0  0999 V2000
   -1.7320    0.0000    0.0000 C   0  0  0  0  0  0  0  0  0  0  0  0
   -1.7517    0.0000    0.0000 C   0  0  0  0  0  0  0  0  0  0  0  0
   -2.4305    0.0000    0.0000 C   0  0  0  0  0  0  0  0  0  0  0  0
   -3.2087    0.0000    0.0000 O   0  0  0  0  0  0  0  0  0  0  0  0
   -2.1944    0.0000    0.0000 O   0  0  0  0  0  0  0  0  0  0  0  0
   -1.3697    0.0000    0.0000 C   0  0  0  0  0  0  0  0  0  0  0  0
   -0.5378    0.0000    0.0000 C   0  0  0  0  0  0  0  0  0  0  0  0
   -0.5164    0.0000    0.0000 O   0  0  0  0  0  0  0  0  0  0  0  0
    0.2014    0.0000    0.0000 C   0  0  0  0  0  0  0  0  0  0  0  0
   -0.0470    0.0000    0.0000 C   0  0  0  0  0  0  0  0  0  0  0  0
   -0.9185    0.0000    0.0000 O   0  0  0  0  0  0  0  0  0  0  0  0
   -0.8686    0.0000    0.0000 C   0  0  0  0  0  0  0  0  0  0  0  0
   -1.6022    0.0000    0.0000 O   0  0  0  0  0  0  0  0  0  0  0  0
   -0.2229    0.0000    0.0000 C   0  0  0  0  0  0  0  0  0  0  0  0
    0.3532    0.0000    0.0000 O   0  0  0  0  0  0  0  0  0  0  0  0
    1.0972    0.0000    0.0000 C   0  0  0  0  0  0  0  0  0  0  0  0
    1.8629    0.0000    0.0000 O   0  0  0  0  0  0  0  0  0  0  0  0
    2.3846    0.0000    0.0000 C   0  0  0  0  0  0  0  0  0  0  0  0
    3.2087    0.0000    0.0000 O   0  0  0  0  0  0  0  0  0  0  0  0
    1.9183    0.0000    0.0000 C   0  0  0  0  0  0  0  0  0  0  0  0
    2.2430    0.0000    0.0000 O   0  0  0  0  0  0  0  0  0  0  0  0
    1.0644    0.0000    0.0000 C   0  0  0  0  0  0  0  0  0  0  0  0
    1.2721    0.0000    0.0000 C   0  0  0  0  0  0  0  0  0  0  0  0
    0.6312    0.0000    0.0000 C   0  0  0  0  0  0  0  0  0  0  0  0
    0.6615    0.0000    0.0000 O   0  0  0  0  0  0  0  0  0  0  0  0
    2.0542    0.0000    0.0000 C   0  0  0  0  0  0  0  0  0  0  0  0
    2.8364    0.0000    0.0000 C   0  0  0  0  0  0  0  0  0  0  0  0
    1.7920    0.0000    0.0000 C   0  0  0  0  0  0  0  0  0  0  0  0
    2.8412    0.0000    0.0000 C   0  0  0  0  0  0  0  0  0  0  0  0
   -1.0961    0.0000    0.0000 C   0  0  0  0  0  0  0  0  0  0  0  0
   -0.8010    0.0000    0.0000 O   0  0  0  0  0  0  0  0  0  0  0  0
  1  2  1  0      
  2  3  1  0      
  3  4  2  0      
  3  5  1  0      
  5  6  1  0      
  6  7  1  0      
  7  8  1  0      
  7  9  1  0      
  9 10  1  0      
 10 11  1  0      
 11 12  1  0      
 12 13  2  0      
 12 14  1  0      
  9 14  1  0      
 14 15  1  0      
 15 16  1  0      
 16 17  1  0      
 17 18  1  0      
 18 19  2  0      
 18 20  1  0      
 20 21  1  0      
 20 22  1  0      
  9 22  1  0      
 16 22  1  0      
 22 23  1  0      
 23 24  1  0      
 10 24  1  0      
 24 25  1  0      
 23 26  1  0      
 26 27  1  0      
 26 28  1  0      
 26 29  1  0      
 14 30  1  0      
  2 30  1  0      
  6 30  1  0      
 30 31  1  0      
M  END
>  <Bioactivity>
Ginkgolide C, a natural product, can enhance the cardiac function of rats in the body.

>  <CAS>
15291-76-6

>  <Col>
9

>  <Formula>
C20H24O11

>  <ID>
T2750

>  <Index>
588

>  <MOLENAME>
Ginkgolide C

>  <MolWt>
440.4

>  <Pathways>
Others

>  <Plate>
PLATE 008

>  <QR code>
1151480482

>  <Receptor>
Others

>  <Reference>
1. Liou CJ, et al. Evid Based Complement Alternat Med. 2015;2015:298635. 

>  <Row>
C

>  <SMILES>
CC1C(=O)OC2C(O)C34C5OC(=O)C3(OC3OC(=O)C(O)C43C(C5O)C(C)(C)C)C12O

>  <Target>
Others

>  <Weight>
10.2mg

$$$$
Lab-1.sdf
  ChemDraw05232018482D

 60 65  0  0  0  0  0  0  0  0999 V2000
   -5.6543    0.0000    0.0000 C   0  0  0  0  0  0  0  0  0  0  0  0
   -4.9405    0.0000    0.0000 C   0  0  0  0  0  0  0  0  0  0  0  0
   -4.2254    0.0000    0.0000 C   0  0  0  0  0  0  0  0  0  0  0  0
   -4.2241    0.0000    0.0000 C   0  0  0  0  0  0  0  0  0  0  0  0
   -3.5115    0.0000    0.0000 C   0  0  0  0  0  0  0  0  0  0  0  0
   -3.5128    0.0000    0.0000 O   0  0  0  0  0  0  0  0  0  0  0  0
   -2.7964    0.0000    0.0000 N   0  0  0  0  0  0  0  0  0  0  0  0
   -2.0826    0.0000    0.0000 C   0  0  0  0  0  0  0  0  0  0  0  0
   -1.3675    0.0000    0.0000 C   0  0  0  0  0  0  0  0  0  0  0  0
   -1.3662    0.0000    0.0000 O   0  0  0  0  0  0  0  0  0  0  0  0
   -0.6537    0.0000    0.0000 C   0  0  0  0  0  0  0  0  0  0  0  0
   -0.6549    0.0000    0.0000 O   0  0  0  0  0  0  0  0  0  0  0  0
    0.0614    0.0000    0.0000 O   0  0  0  0  0  0  0  0  0  0  0  0
    0.7753    0.0000    0.0000 C   0  0  0  0  0  0  0  0  0  0  0  0
    1.5401    0.0000    0.0000 C   0  0  0  0  0  0  0  0  0  0  0  0
    2.3195    0.0000    0.0000 C   0  0  0  0  0  0  0  0  0  0  0  0
    2.5867    0.0000    0.0000 O   0  0  0  0  0  0  0  0  0  0  0  0
    3.1842    0.0000    0.0000 C   0  0  0  0  0  0  0  0  0  0  0  0
    3.5927    0.0000    0.0000 O   0  0  0  0  0  0  0  0  0  0  0  0
    3.1763    0.0000    0.0000 C   0  0  0  0  0  0  0  0  0  0  0  0
    2.3513    0.0000    0.0000 O   0  0  0  0  0  0  0  0  0  0  0  0
    3.5849    0.0000    0.0000 C   0  0  0  0  0  0  0  0  0  0  0  0
    4.4098    0.0000    0.0000 C   0  0  0  0  0  0  0  0  0  0  0  0
    4.8184    0.0000    0.0000 C   0  0  0  0  0  0  0  0  0  0  0  0
    4.4020    0.0000    0.0000 C   0  0  0  0  0  0  0  0  0  0  0  0
    3.5770    0.0000    0.0000 C   0  0  0  0  0  0  0  0  0  0  0  0
    3.1684    0.0000    0.0000 C   0  0  0  0  0  0  0  0  0  0  0  0
    3.7426    0.0000    0.0000 C   0  0  0  0  0  0  0  0  0  0  0  0
    4.4999    0.0000    0.0000 C   0  0  0  0  0  0  0  0  0  0  0  0
    4.9923    0.0000    0.0000 C   0  0  0  0  0  0  0  0  0  0  0  0
    5.6543    0.0000    0.0000 O   0  0  0  0  0  0  0  0  0  0  0  0
    5.1619    0.0000    0.0000 C   0  0  0  0  0  0  0  0  0  0  0  0
    5.0666    0.0000    0.0000 C   0  0  0  0  0  0  0  0  0  0  0  0
    4.3092    0.0000    0.0000 C   0  0  0  0  0  0  0  0  0  0  0  0
    4.2139    0.0000    0.0000 O   0  0  0  0  0  0  0  0  0  0  0  0
    3.6472    0.0000    0.0000 C   0  0  0  0  0  0  0  0  0  0  0  0
    3.6498    0.0000    0.0000 C   0  0  0  0  0  0  0  0  0  0  0  0
    2.9737    0.0000    0.0000 C   0  0  0  0  0  0  0  0  0  0  0  0
    3.1620    0.0000    0.0000 O   0  0  0  0  0  0  0  0  0  0  0  0
    2.1275    0.0000    0.0000 C   0  0  0  0  0  0  0  0  0  0  0  0
    1.7088    0.0000    0.0000 O   0  0  0  0  0  0  0  0  0  0  0  0
    0.8839    0.0000    0.0000 C   0  0  0  0  0  0  0  0  0  0  0  0
    0.4775    0.0000    0.0000 C   0  0  0  0  0  0  0  0  0  0  0  0
    0.4652    0.0000    0.0000 O   0  0  0  0  0  0  0  0  0  0  0  0
    1.5678    0.0000    0.0000 C   0  0  0  0  0  0  0  0  0  0  0  0
    0.8208    0.0000    0.0000 C   0  0  0  0  0  0  0  0  0  0  0  0
    0.1095    0.0000    0.0000 C   0  0  0  0  0  0  0  0  0  0  0  0
    1.9883    0.0000    0.0000 C   0  0  0  0  0  0  0  0  0  0  0  0
    2.4961    0.0000    0.0000 C   0  0  0  0  0  0  0  0  0  0  0  0
    2.8049    0.0000    0.0000 C   0  0  0  0  0  0  0  0  0  0  0  0
    3.9879    0.0000    0.0000 O   0  0  0  0  0  0  0  0  0  0  0  0
    4.2921    0.0000    0.0000 C   0  0  0  0  0  0  0  0  0  0  0  0
    5.1083    0.0000    0.0000 C   0  0  0  0  0  0  0  0  0  0  0  0
    3.7801    0.0000    0.0000 O   0  0  0  0  0  0  0  0  0  0  0  0
   -2.0839    0.0000    0.0000 C   0  0  0  0  0  0  0  0  0  0  0  0
   -2.7990    0.0000    0.0000 C   0  0  0  0  0  0  0  0  0  0  0  0
   -2.8003    0.0000    0.0000 C   0  0  0  0  0  0  0  0  0  0  0  0
   -2.0864    0.0000    0.0000 C   0  0  0  0  0  0  0  0  0  0  0  0
   -1.3713    0.0000    0.0000 C   0  0  0  0  0  0  0  0  0  0  0  0
   -1.3700    0.0000    0.0000 C   0  0  0  0  0  0  0  0  0  0  0  0
  2  1  1  4      
  2  3  2  0      
  3  4  1  0      
  3  5  1  0      
  5  6  2  0      
  5  7  1  0      
  7  8  1  0      
  8  9  1  0      
  9 10  1  0      
  9 11  1  0      
 11 12  2  0      
 11 13  1  0      
 13 14  1  0      
 14 15  1  0      
 15 16  1  0      
 16 17  1  0      
 16 18  1  0      
 18 19  1  0      
 19 20  1  0      
 20 21  2  0      
 20 22  1  0      
 22 23  2  0      
 23 24  1  0      
 24 25  2  0      
 25 26  1  0      
 26 27  2  0      
 22 27  1  0      
 18 28  1  0      
 28 29  1  0      
 29 30  1  0      
 30 31  1  0      
 31 32  1  0      
 29 32  1  0      
 32 33  1  0      
 33 34  1  0      
 34 35  1  0      
 34 36  1  0      
 28 36  1  0      
 36 37  1  0      
 36 38  1  0      
 38 39  2  0      
 38 40  1  0      
 40 41  1  0      
 41 42  1  0      
 42 43  1  0      
 42 44  2  0      
 40 45  1  0      
 45 46  2  0      
 14 46  1  0      
 46 47  1  0      
 45 48  1  0      
 16 48  1  0      
 48 49  1  0      
 48 50  1  0      
 29 51  1  0      
 51 52  1  0      
 52 53  1  0      
 52 54  2  0      
  8 55  1  0      
 55 56  2  0      
 56 57  1  0      
 57 58  2  0      
 58 59  1  0      
 59 60  2  0      
 55 60  1  0      
M  END
>  <Bioactivity>
Cephalomannine is an active anti-Y agent obtained from Taxus yunnanensis and has an antineoplastic effect on tumors found in mice.

>  <CAS>
71610-00-9

>  <Col>
10

>  <Formula>
C45H53NO14

>  <ID>
T2217

>  <Index>
589

>  <MOLENAME>
Cephalomannine

>  <MolWt>
831.91

>  <Pathways>
Others

>  <Plate>
PLATE 008

>  <QR code>
1151480481

>  <Receptor>
Others

>  <Reference>
1. Helson L. Int J Oncol. 1993 Feb;2(2):297-9.

>  <Row>
C

>  <SMILES>
CC=C(C)C(=O)NC(C(O)C(=O)OC1CC2(O)C(OC(=O)C3=CC=CC=C3)C3C4(COC4CC(O)C3(C)C(=O)C(OC(C)=O)C(=C1C)C2(C)C)OC(C)=O)C1=CC=CC=C1

>  <Target>
Others

>  <Weight>
10.1mg

$$$$
Lab-1.sdf
  ChemDraw05232018482D

 26 30  0  0  0  0  0  0  0  0999 V2000
    1.5369    0.0000    0.0000 C   0  0  0  0  0  0  0  0  0  0  0  0
    1.9625    0.0000    0.0000 C   0  0  0  0  0  0  0  0  0  0  0  0
    2.6059    0.0000    0.0000 C   0  0  0  0  0  0  0  0  0  0  0  0
    2.5056    0.0000    0.0000 C   0  0  0  0  0  0  0  0  0  0  0  0
    2.3666    0.0000    0.0000 C   0  0  0  0  0  0  0  0  0  0  0  0
    1.6228    0.0000    0.0000 C   0  0  0  0  0  0  0  0  0  0  0  0
    1.5339    0.0000    0.0000 O   0  0  0  0  0  0  0  0  0  0  0  0
    0.9564    0.0000    0.0000 C   0  0  0  0  0  0  0  0  0  0  0  0
    0.3362    0.0000    0.0000 C   0  0  0  0  0  0  0  0  0  0  0  0
    0.5148    0.0000    0.0000 O   0  0  0  0  0  0  0  0  0  0  0  0
   -0.1130    0.0000    0.0000 C   0  0  0  0  0  0  0  0  0  0  0  0
   -0.6349    0.0000    0.0000 O   0  0  0  0  0  0  0  0  0  0  0  0
    0.7656    0.0000    0.0000 C   0  0  0  0  0  0  0  0  0  0  0  0
    1.0876    0.0000    0.0000 O   0  0  0  0  0  0  0  0  0  0  0  0
    1.2217    0.0000    0.0000 C   0  0  0  0  0  0  0  0  0  0  0  0
   -0.4390    0.0000    0.0000 C   0  0  0  0  0  0  0  0  0  0  0  0
   -1.0174    0.0000    0.0000 C   0  0  0  0  0  0  0  0  0  0  0  0
   -0.5269    0.0000    0.0000 O   0  0  0  0  0  0  0  0  0  0  0  0
   -1.7129    0.0000    0.0000 C   0  0  0  0  0  0  0  0  0  0  0  0
   -1.1295    0.0000    0.0000 C   0  0  0  0  0  0  0  0  0  0  0  0
   -0.3018    0.0000    0.0000 C   0  0  0  0  0  0  0  0  0  0  0  0
    0.0558    0.0000    0.0000 C   0  0  0  0  0  0  0  0  0  0  0  0
   -1.8549    0.0000    0.0000 C   0  0  0  0  0  0  0  0  0  0  0  0
   -2.6059    0.0000    0.0000 C   0  0  0  0  0  0  0  0  0  0  0  0
   -1.2112    0.0000    0.0000 C   0  0  0  0  0  0  0  0  0  0  0  0
   -1.3105    0.0000    0.0000 O   0  0  0  0  0  0  0  0  0  0  0  0
  1  2  1  0      
  2  3  1  0      
  2  4  1  0      
  4  5  1  0      
  5  6  1  0      
  6  7  1  0      
  6  8  1  0      
  8  9  1  0      
  9 10  1  0      
 10 11  1  0      
 11 12  1  0      
 11 13  1  0      
 13 14  1  0      
 13 15  1  0      
  2 15  1  0      
  8 15  1  0      
 11 16  1  0      
 16 17  1  0      
 17 18  1  0      
 17 19  1  0      
 19 20  1  0      
 20 21  1  0      
 21 22  1  0      
  8 22  1  0      
 16 22  1  0      
 19 23  1  0      
 23 24  2  0      
 23 25  1  0      
 16 25  1  0      
 25 26  2  0      
M  END
>  <Bioactivity>
Oridonin has potent anti-tumor activity. Oridonin targets AE (AML1-ETO) oncoprotein. Exposure to oridonin induces apoptosis in AE-bearing leukemic cells through the activation of intrinsic apoptotic p
athway and triggering a caspase-3-mediated degradation

>  <CAS>
28957-04-2

>  <Col>
11

>  <Formula>
C20H28O6

>  <ID>
T2790

>  <Index>
590

>  <MOLENAME>
Rubescensin A

>  <MolWt>
364.44

>  <Pathways>
Others

>  <Plate>
PLATE 008

>  <QR code>
1151480480

>  <Receptor>
Others

>  <Reference>
1. Ikezoe T, et al. Int J Oncol, 2003, 23(4), 1187-1193.

>  <Row>
C

>  <SMILES>
CC1(C)CCC(O)C23COC(O)(C(O)C12)C12C(O)C(CCC31)C(=C)C2=O

>  <Target>
Others

>  <Weight>
10.2mg

$$$$
Lab-1.sdf
  ChemDraw05232018482D

 33 36  0  0  0  0  0  0  0  0999 V2000
    4.6787    0.0000    0.0000 C   0  0  0  0  0  0  0  0  0  0  0  0
    4.1724    0.0000    0.0000 C   0  0  0  0  0  0  0  0  0  0  0  0
    4.4833    0.0000    0.0000 C   0  0  0  0  0  0  0  0  0  0  0  0
    3.3551    0.0000    0.0000 C   0  0  0  0  0  0  0  0  0  0  0  0
    2.8488    0.0000    0.0000 C   0  0  0  0  0  0  0  0  0  0  0  0
    2.0314    0.0000    0.0000 C   0  0  0  0  0  0  0  0  0  0  0  0
    1.5251    0.0000    0.0000 C   0  0  0  0  0  0  0  0  0  0  0  0
    0.8737    0.0000    0.0000 C   0  0  0  0  0  0  0  0  0  0  0  0
    2.1765    0.0000    0.0000 O   0  0  0  0  0  0  0  0  0  0  0  0
    1.0187    0.0000    0.0000 C   0  0  0  0  0  0  0  0  0  0  0  0
    1.2480    0.0000    0.0000 C   0  0  0  0  0  0  0  0  0  0  0  0
    0.5652    0.0000    0.0000 C   0  0  0  0  0  0  0  0  0  0  0  0
   -0.0862    0.0000    0.0000 C   0  0  0  0  0  0  0  0  0  0  0  0
   -0.2838    0.0000    0.0000 C   0  0  0  0  0  0  0  0  0  0  0  0
    0.1941    0.0000    0.0000 C   0  0  0  0  0  0  0  0  0  0  0  0
   -0.3377    0.0000    0.0000 C   0  0  0  0  0  0  0  0  0  0  0  0
   -0.0574    0.0000    0.0000 O   0  0  0  0  0  0  0  0  0  0  0  0
   -1.1498    0.0000    0.0000 C   0  0  0  0  0  0  0  0  0  0  0  0
   -1.4301    0.0000    0.0000 C   0  0  0  0  0  0  0  0  0  0  0  0
   -0.8983    0.0000    0.0000 C   0  0  0  0  0  0  0  0  0  0  0  0
   -1.1786    0.0000    0.0000 C   0  0  0  0  0  0  0  0  0  0  0  0
   -1.9907    0.0000    0.0000 C   0  0  0  0  0  0  0  0  0  0  0  0
   -2.2711    0.0000    0.0000 O   0  0  0  0  0  0  0  0  0  0  0  0
   -2.5226    0.0000    0.0000 C   0  0  0  0  0  0  0  0  0  0  0  0
   -3.3347    0.0000    0.0000 C   0  0  0  0  0  0  0  0  0  0  0  0
   -3.0507    0.0000    0.0000 C   0  0  0  0  0  0  0  0  0  0  0  0
   -4.0482    0.0000    0.0000 C   0  0  0  0  0  0  0  0  0  0  0  0
   -3.8665    0.0000    0.0000 C   0  0  0  0  0  0  0  0  0  0  0  0
   -4.6787    0.0000    0.0000 O   0  0  0  0  0  0  0  0  0  0  0  0
   -3.5862    0.0000    0.0000 C   0  0  0  0  0  0  0  0  0  0  0  0
   -2.7741    0.0000    0.0000 C   0  0  0  0  0  0  0  0  0  0  0  0
   -2.2423    0.0000    0.0000 C   0  0  0  0  0  0  0  0  0  0  0  0
   -1.9619    0.0000    0.0000 C   0  0  0  0  0  0  0  0  0  0  0  0
  1  2  1  0      
  2  3  1  0      
  2  4  2  0      
  4  5  1  0      
  5  6  1  0      
  6  7  1  0      
  7  8  1  0      
  7  9  1  0      
  7 10  1  0      
 10 11  1  0      
 11 12  1  0      
 12 13  1  0      
 13 14  1  0      
 13 15  1  0      
 10 15  1  0      
 15 16  1  0      
 16 17  1  0      
 16 18  1  0      
 18 19  1  0      
 19 20  1  0      
 13 20  1  0      
 20 21  1  0      
 21 22  1  0      
 22 23  1  0      
 22 24  1  0      
 24 25  1  0      
 25 26  1  0      
 25 27  1  0      
 25 28  1  0      
 28 29  1  0      
 28 30  1  0      
 30 31  1  0      
 31 32  1  0      
 19 32  1  0      
 24 32  1  0      
 32 33  1  0      
M  END
>  <Bioactivity>
(20S)-Protopanaxatriol(g-PPT) is a metabolites of ginsenoside, protopanaxatriol (g-PPT), could modulate endothelial cell functions through the glucocorticoid receptor (GR) and oestrogen receptor (ER).

>  <CAS>
34080-08-5

>  <Col>
2

>  <Formula>
C30H52O4

>  <ID>
T2810

>  <Index>
591

>  <MOLENAME>
Protopanaxatriol

>  <MolWt>
476.73

>  <Pathways>
Others

>  <Plate>
PLATE 008

>  <QR code>
1151480468

>  <Receptor>
Others

>  <Reference>
1. Zhang Y, et al. Sci Rep. 2014 Dec 9;4:7375.

>  <Row>
D

>  <SMILES>
CC(C)=CCCC(C)(O)C1CCC2(C)C1C(O)CC1C2CC(O)C2C(C)(C)C(O)CCC12C

>  <Target>
Others

>  <Weight>
10.3mg

$$$$
Lab-1.sdf
  ChemDraw05232018482D

 30 35  0  0  0  0  0  0  0  0999 V2000
   -1.6633    0.0000    0.0000 C   0  0  0  0  0  0  0  0  0  0  0  0
   -1.7122    0.0000    0.0000 C   0  0  0  0  0  0  0  0  0  0  0  0
   -2.4072    0.0000    0.0000 C   0  0  0  0  0  0  0  0  0  0  0  0
   -3.1752    0.0000    0.0000 O   0  0  0  0  0  0  0  0  0  0  0  0
   -2.1992    0.0000    0.0000 O   0  0  0  0  0  0  0  0  0  0  0  0
   -1.3758    0.0000    0.0000 C   0  0  0  0  0  0  0  0  0  0  0  0
   -0.5428    0.0000    0.0000 C   0  0  0  0  0  0  0  0  0  0  0  0
   -0.5447    0.0000    0.0000 O   0  0  0  0  0  0  0  0  0  0  0  0
    0.2129    0.0000    0.0000 C   0  0  0  0  0  0  0  0  0  0  0  0
    0.0178    0.0000    0.0000 C   0  0  0  0  0  0  0  0  0  0  0  0
    0.7321    0.0000    0.0000 C   0  0  0  0  0  0  0  0  0  0  0  0
    1.3373    0.0000    0.0000 C   0  0  0  0  0  0  0  0  0  0  0  0
    2.1360    0.0000    0.0000 C   0  0  0  0  0  0  0  0  0  0  0  0
    2.9347    0.0000    0.0000 C   0  0  0  0  0  0  0  0  0  0  0  0
    2.3422    0.0000    0.0000 C   0  0  0  0  0  0  0  0  0  0  0  0
    1.9298    0.0000    0.0000 C   0  0  0  0  0  0  0  0  0  0  0  0
    1.0645    0.0000    0.0000 C   0  0  0  0  0  0  0  0  0  0  0  0
    1.9082    0.0000    0.0000 C   0  0  0  0  0  0  0  0  0  0  0  0
    2.7282    0.0000    0.0000 O   0  0  0  0  0  0  0  0  0  0  0  0
    2.3522    0.0000    0.0000 C   0  0  0  0  0  0  0  0  0  0  0  0
    3.1752    0.0000    0.0000 O   0  0  0  0  0  0  0  0  0  0  0  0
    1.8173    0.0000    0.0000 O   0  0  0  0  0  0  0  0  0  0  0  0
    1.0547    0.0000    0.0000 C   0  0  0  0  0  0  0  0  0  0  0  0
    0.2900    0.0000    0.0000 O   0  0  0  0  0  0  0  0  0  0  0  0
   -0.2211    0.0000    0.0000 C   0  0  0  0  0  0  0  0  0  0  0  0
   -0.8603    0.0000    0.0000 C   0  0  0  0  0  0  0  0  0  0  0  0
   -1.6106    0.0000    0.0000 O   0  0  0  0  0  0  0  0  0  0  0  0
   -0.8437    0.0000    0.0000 O   0  0  0  0  0  0  0  0  0  0  0  0
   -1.0748    0.0000    0.0000 C   0  0  0  0  0  0  0  0  0  0  0  0
   -0.7415    0.0000    0.0000 O   0  0  0  0  0  0  0  0  0  0  0  0
  1  2  1  0      
  2  3  1  0      
  3  4  2  0      
  3  5  1  0      
  5  6  1  0      
  6  7  1  0      
  7  8  1  0      
  7  9  1  0      
  9 10  1  0      
 10 11  1  0      
 11 12  1  0      
 12 13  1  0      
 13 14  1  0      
 13 15  1  0      
 13 16  1  0      
 12 17  1  0      
  9 17  1  0      
 17 18  1  0      
 18 19  1  0      
 18 20  1  0      
 20 21  2  0      
 20 22  1  0      
 22 23  1  0      
 17 23  1  0      
 23 24  1  0      
 24 25  1  0      
  9 25  1  0      
 25 26  1  0      
 26 27  2  0      
 26 28  1  0      
 10 28  1  0      
 25 29  1  0      
  2 29  1  0      
  6 29  1  0      
 29 30  1  0      
M  END
>  <Bioactivity>
Ginkgolide B, an important active terpenoid from Ginkgo biloba leaves, is reported to increase cell viability and decrease cell apoptosis.

>  <CAS>
15291-77-7

>  <Col>
3

>  <Formula>
C20H24O10

>  <ID>
T2751

>  <Index>
592

>  <MOLENAME>
Ginkgolide B

>  <MolWt>
424.4

>  <Pathways>
GPCR/G Protein

>  <Plate>
PLATE 008

>  <QR code>
1151480469

>  <Receptor>
PAFR

>  <Reference>
1. Liu X, et al. Thromb Res. 2014 Nov;134(5):1066-73. 

>  <Row>
D

>  <SMILES>
CC1C(=O)OC2C(O)C34C5CC(C(C)(C)C)C33C(O)C(=O)OC3OC4(C(=O)O5)C12O

>  <Target>
PAFR antagonist

>  <Weight>
10.2mg

$$$$
Lab-1.sdf
  ChemDraw05232018482D

 27 29  0  0  0  0  0  0  0  0999 V2000
   -3.9295    0.0000    0.0000 C   0  0  0  0  0  0  0  0  0  0  0  0
   -3.2151    0.0000    0.0000 O   0  0  0  0  0  0  0  0  0  0  0  0
   -2.5006    0.0000    0.0000 C   0  0  0  0  0  0  0  0  0  0  0  0
   -1.7861    0.0000    0.0000 C   0  0  0  0  0  0  0  0  0  0  0  0
   -1.0717    0.0000    0.0000 C   0  0  0  0  0  0  0  0  0  0  0  0
   -1.0717    0.0000    0.0000 C   0  0  0  0  0  0  0  0  0  0  0  0
   -1.7861    0.0000    0.0000 C   0  0  0  0  0  0  0  0  0  0  0  0
   -2.5006    0.0000    0.0000 C   0  0  0  0  0  0  0  0  0  0  0  0
   -0.3573    0.0000    0.0000 C   0  0  0  0  0  0  0  0  0  0  0  0
   -0.3573    0.0000    0.0000 C   0  0  0  0  0  0  0  0  0  0  0  0
    0.3572    0.0000    0.0000 C   0  0  0  0  0  0  0  0  0  0  0  0
    0.3572    0.0000    0.0000 O   0  0  0  0  0  0  0  0  0  0  0  0
    1.0717    0.0000    0.0000 C   0  0  0  0  0  0  0  0  0  0  0  0
    1.0717    0.0000    0.0000 C   0  0  0  0  0  0  0  0  0  0  0  0
    0.3572    0.0000    0.0000 O   0  0  0  0  0  0  0  0  0  0  0  0
    1.7860    0.0000    0.0000 C   0  0  0  0  0  0  0  0  0  0  0  0
    1.7860    0.0000    0.0000 O   0  0  0  0  0  0  0  0  0  0  0  0
    2.5005    0.0000    0.0000 C   0  0  0  0  0  0  0  0  0  0  0  0
    2.5005    0.0000    0.0000 C   0  0  0  0  0  0  0  0  0  0  0  0
    3.2150    0.0000    0.0000 O   0  0  0  0  0  0  0  0  0  0  0  0
    3.9295    0.0000    0.0000 C   0  0  0  0  0  0  0  0  0  0  0  0
    2.5005    0.0000    0.0000 C   0  0  0  0  0  0  0  0  0  0  0  0
    3.2150    0.0000    0.0000 O   0  0  0  0  0  0  0  0  0  0  0  0
    3.9295    0.0000    0.0000 C   0  0  0  0  0  0  0  0  0  0  0  0
    1.7860    0.0000    0.0000 C   0  0  0  0  0  0  0  0  0  0  0  0
    1.7860    0.0000    0.0000 O   0  0  0  0  0  0  0  0  0  0  0  0
    1.0717    0.0000    0.0000 C   0  0  0  0  0  0  0  0  0  0  0  0
  1  2  1  0      
  2  3  1  0      
  3  4  2  0      
  4  5  1  0      
  5  6  2  0      
  6  7  1  0      
  7  8  2  0      
  3  8  1  0      
  6  9  1  0      
  9 10  2  0      
 10 11  1  0      
 11 12  2  0      
 11 13  1  0      
 13 14  2  0      
 14 15  1  0      
  9 15  1  0      
 14 16  1  0      
 16 17  1  0      
 17 18  1  0      
 16 19  2  0      
 19 20  1  0      
 20 21  1  0      
 19 22  1  0      
 22 23  1  0      
 23 24  1  0      
 22 25  2  0      
 13 25  1  0      
 25 26  1  0      
 26 27  1  0      
M  END
>  <Bioactivity>
Tangeretin, a flavonoid from citrus fruit peels, has been proven to play an important role in anti-inflammatory responses and neuroprotective effects in several disease models, and was also selected a
s a Notch-1 inhibitor. 

>  <CAS>
481-53-8

>  <Col>
4

>  <Formula>
C20H20O7

>  <ID>
T2842

>  <Index>
593

>  <MOLENAME>
Tangeretin

>  <MolWt>
372.38

>  <Pathways>
Others

>  <Plate>
PLATE 008

>  <QR code>
1151480470

>  <Receptor>
Others

>  <Reference>
1. Hirano T, et al. Br J Y, 1995, 72(6), 1380-1388.

>  <Row>
D

>  <SMILES>
COC1=CC=C(C=C1)C1=CC(=O)C2=C(O1)C(OC)=C(OC)C(OC)=C2OC

>  <Target>
Notch-1 inhibitor

>  <Weight>
10.2mg

$$$$
Lab-1.sdf
  ChemDraw05232018482D

 38 42  0  0  0  0  0  0  0  0999 V2000
   -2.9085    0.0000    0.0000 C   0  0  0  0  0  0  0  0  0  0  0  0
   -2.1016    0.0000    0.0000 O   0  0  0  0  0  0  0  0  0  0  0  0
   -1.8466    0.0000    0.0000 C   0  0  0  0  0  0  0  0  0  0  0  0
   -1.0396    0.0000    0.0000 C   0  0  0  0  0  0  0  0  0  0  0  0
   -0.4876    0.0000    0.0000 O   0  0  0  0  0  0  0  0  0  0  0  0
    0.3195    0.0000    0.0000 C   0  0  0  0  0  0  0  0  0  0  0  0
   -0.7847    0.0000    0.0000 C   0  0  0  0  0  0  0  0  0  0  0  0
   -1.3367    0.0000    0.0000 C   0  0  0  0  0  0  0  0  0  0  0  0
   -2.1437    0.0000    0.0000 C   0  0  0  0  0  0  0  0  0  0  0  0
   -2.3986    0.0000    0.0000 C   0  0  0  0  0  0  0  0  0  0  0  0
   -1.0818    0.0000    0.0000 C   0  0  0  0  0  0  0  0  0  0  0  0
   -1.5667    0.0000    0.0000 O   0  0  0  0  0  0  0  0  0  0  0  0
   -1.0818    0.0000    0.0000 C   0  0  0  0  0  0  0  0  0  0  0  0
   -0.2972    0.0000    0.0000 C   0  0  0  0  0  0  0  0  0  0  0  0
   -0.2972    0.0000    0.0000 C   0  0  0  0  0  0  0  0  0  0  0  0
    0.4875    0.0000    0.0000 C   0  0  0  0  0  0  0  0  0  0  0  0
    0.9725    0.0000    0.0000 O   0  0  0  0  0  0  0  0  0  0  0  0
    0.4875    0.0000    0.0000 C   0  0  0  0  0  0  0  0  0  0  0  0
    0.7425    0.0000    0.0000 C   0  0  0  0  0  0  0  0  0  0  0  0
    1.5495    0.0000    0.0000 C   0  0  0  0  0  0  0  0  0  0  0  0
    2.1015    0.0000    0.0000 O   0  0  0  0  0  0  0  0  0  0  0  0
    2.9085    0.0000    0.0000 C   0  0  0  0  0  0  0  0  0  0  0  0
    1.8044    0.0000    0.0000 C   0  0  0  0  0  0  0  0  0  0  0  0
    1.2524    0.0000    0.0000 C   0  0  0  0  0  0  0  0  0  0  0  0
    1.5073    0.0000    0.0000 O   0  0  0  0  0  0  0  0  0  0  0  0
    0.9553    0.0000    0.0000 C   0  0  0  0  0  0  0  0  0  0  0  0
    1.2102    0.0000    0.0000 O   0  0  0  0  0  0  0  0  0  0  0  0
    0.6582    0.0000    0.0000 C   0  0  0  0  0  0  0  0  0  0  0  0
    0.9131    0.0000    0.0000 C   0  0  0  0  0  0  0  0  0  0  0  0
    1.7201    0.0000    0.0000 O   0  0  0  0  0  0  0  0  0  0  0  0
   -0.1489    0.0000    0.0000 C   0  0  0  0  0  0  0  0  0  0  0  0
   -0.7009    0.0000    0.0000 O   0  0  0  0  0  0  0  0  0  0  0  0
   -0.4038    0.0000    0.0000 C   0  0  0  0  0  0  0  0  0  0  0  0
   -1.2108    0.0000    0.0000 O   0  0  0  0  0  0  0  0  0  0  0  0
    0.1482    0.0000    0.0000 C   0  0  0  0  0  0  0  0  0  0  0  0
   -0.1067    0.0000    0.0000 O   0  0  0  0  0  0  0  0  0  0  0  0
    0.4454    0.0000    0.0000 C   0  0  0  0  0  0  0  0  0  0  0  0
    0.1903    0.0000    0.0000 C   0  0  0  0  0  0  0  0  0  0  0  0
  1  2  1  0      
  2  3  1  0      
  3  4  2  0      
  4  5  1  0      
  5  6  1  0      
  4  7  1  0      
  7  8  2  0      
  8  9  1  0      
  9 10  2  0      
  3 10  1  0      
  8 11  1  0      
 11 12  1  0      
 12 13  1  0      
 13 14  1  0      
 14 15  1  0      
 11 15  1  0      
 15 16  1  0      
 16 17  1  0      
 17 18  1  0      
 14 18  1  0      
 18 19  1  0      
 19 20  2  0      
 20 21  1  0      
 21 22  1  0      
 20 23  1  0      
 23 24  2  0      
 24 25  1  0      
 25 26  1  0      
 26 27  1  0      
 27 28  1  0      
 28 29  1  0      
 29 30  1  0      
 28 31  1  0      
 31 32  1  0      
 31 33  1  0      
 33 34  1  0      
 33 35  1  0      
 26 35  1  0      
 35 36  1  0      
 24 37  1  0      
 37 38  2  0      
 19 38  1  0      
M  END
>  <Bioactivity>
Extracted from Forsythia suspensa;Suitability:The mixed solvent of chloroform and methanol,DMSO;Store the product in sealed,cool and dry condition

>  <CAS>
487-41-2

>  <Col>
5

>  <Formula>
C27H34O11

>  <ID>
T2854

>  <Index>
594

>  <MOLENAME>
Forsythin

>  <MolWt>
534.56

>  <Pathways>
MAPK Signaling

>  <Plate>
PLATE 008

>  <QR code>
1151480471

>  <Receptor>
p38 MAPK

>  <Reference>
1. Pan X, et al. Inflamm Res. 2014 Jul;63(7):597-608. 

>  <Row>
D

>  <SMILES>
COC1=C(OC)C=C(C=C1)C1OCC2C1COC2C1=C(OC)C=C(OC2OC(CO)C(O)C(O)C2O)C=C1

>  <Target>
p38 MAPK inhibitor

>  <Weight>
10mg

$$$$
Lab-1.sdf
  ChemDraw05232018482D

 28 31  0  0  0  0  0  0  0  0999 V2000
   -2.1090    0.0000    0.0000 C   0  0  0  0  0  0  0  0  0  0  0  0
   -1.5771    0.0000    0.0000 C   0  0  0  0  0  0  0  0  0  0  0  0
   -0.7650    0.0000    0.0000 O   0  0  0  0  0  0  0  0  0  0  0  0
   -1.8574    0.0000    0.0000 O   0  0  0  0  0  0  0  0  0  0  0  0
   -1.3256    0.0000    0.0000 C   0  0  0  0  0  0  0  0  0  0  0  0
   -1.6059    0.0000    0.0000 C   0  0  0  0  0  0  0  0  0  0  0  0
   -2.4180    0.0000    0.0000 C   0  0  0  0  0  0  0  0  0  0  0  0
   -2.6983    0.0000    0.0000 C   0  0  0  0  0  0  0  0  0  0  0  0
   -3.5105    0.0000    0.0000 O   0  0  0  0  0  0  0  0  0  0  0  0
   -2.1665    0.0000    0.0000 C   0  0  0  0  0  0  0  0  0  0  0  0
   -1.3544    0.0000    0.0000 C   0  0  0  0  0  0  0  0  0  0  0  0
   -0.8226    0.0000    0.0000 C   0  0  0  0  0  0  0  0  0  0  0  0
   -0.0105    0.0000    0.0000 C   0  0  0  0  0  0  0  0  0  0  0  0
    0.2699    0.0000    0.0000 C   0  0  0  0  0  0  0  0  0  0  0  0
    1.0821    0.0000    0.0000 C   0  0  0  0  0  0  0  0  0  0  0  0
    1.7334    0.0000    0.0000 C   0  0  0  0  0  0  0  0  0  0  0  0
    2.4162    0.0000    0.0000 C   0  0  0  0  0  0  0  0  0  0  0  0
    2.1869    0.0000    0.0000 C   0  0  0  0  0  0  0  0  0  0  0  0
    2.6933    0.0000    0.0000 C   0  0  0  0  0  0  0  0  0  0  0  0
    3.5105    0.0000    0.0000 C   0  0  0  0  0  0  0  0  0  0  0  0
    2.3824    0.0000    0.0000 O   0  0  0  0  0  0  0  0  0  0  0  0
    1.3624    0.0000    0.0000 C   0  0  0  0  0  0  0  0  0  0  0  0
    1.7222    0.0000    0.0000 C   0  0  0  0  0  0  0  0  0  0  0  0
    0.8305    0.0000    0.0000 C   0  0  0  0  0  0  0  0  0  0  0  0
    0.0184    0.0000    0.0000 C   0  0  0  0  0  0  0  0  0  0  0  0
   -0.2620    0.0000    0.0000 C   0  0  0  0  0  0  0  0  0  0  0  0
   -1.0741    0.0000    0.0000 C   0  0  0  0  0  0  0  0  0  0  0  0
   -0.7938    0.0000    0.0000 C   0  0  0  0  0  0  0  0  0  0  0  0
  1  2  1  0      
  2  3  2  0      
  2  4  1  0      
  4  5  1  0      
  5  6  1  0      
  6  7  1  0      
  7  8  1  0      
  8  9  2  0      
  8 10  1  0      
 10 11  2  0      
 11 12  1  0      
 12 13  1  0      
 13 14  1  0      
 14 15  1  0      
 15 16  1  0      
 16 17  1  0      
 17 18  1  0      
 18 19  1  0      
 19 20  1  0      
 19 21  2  0      
 18 22  1  0      
 15 22  1  0      
 22 23  1  0      
 22 24  1  0      
 24 25  1  0      
 25 26  1  0      
 14 26  1  0      
 26 27  1  0      
  6 27  1  0      
 11 27  1  0      
 27 28  1  0      
M  END
>  <Bioactivity>
Medroxyprogesterone acetate is a progestin, a synthetic variant of the human hormone progesterone and a potent progesterone receptor agonist.

>  <CAS>
71-58-9

>  <Col>
6

>  <Formula>
C24H34O4

>  <ID>
T1261

>  <Index>
595

>  <MOLENAME>
Farlutin

>  <MolWt>
386.54

>  <Pathways>
Endocrinology/ Hormones

>  <Plate>
PLATE 008

>  <QR code>
1151480472

>  <Receptor>
ER; Progesterone receptor

>  <Reference>
1. Risch HA, et al. Y Epidemiol Biomarkers Prev. 2006 Sep;15(9):1738-41. 

>  <Row>
D

>  <SMILES>
CC(=O)OCC1CC(=O)C=C2CCC3C4CCC(C(C)=O)C4(C)CCC3C12C

>  <Target>
Estrogen/Progestogen Receptor agonist

>  <Weight>
10.1mg

$$$$
Lab-1.sdf
  ChemDraw05232018482D

 23 24  0  0  0  0  0  0  0  0999 V2000
    1.7064    0.0000    0.0000 C   0  0  0  0  0  0  0  0  0  0  0  0
    0.9919    0.0000    0.0000 O   0  0  0  0  0  0  0  0  0  0  0  0
    0.2776    0.0000    0.0000 C   0  0  0  0  0  0  0  0  0  0  0  0
   -0.4370    0.0000    0.0000 C   0  0  0  0  0  0  0  0  0  0  0  0
   -0.4370    0.0000    0.0000 C   0  0  0  0  0  0  0  0  0  0  0  0
   -1.1515    0.0000    0.0000 C   0  0  0  0  0  0  0  0  0  0  0  0
   -1.1515    0.0000    0.0000 C   0  0  0  0  0  0  0  0  0  0  0  0
   -1.9361    0.0000    0.0000 C   0  0  0  0  0  0  0  0  0  0  0  0
   -2.1910    0.0000    0.0000 O   0  0  0  0  0  0  0  0  0  0  0  0
   -2.4209    0.0000    0.0000 O   0  0  0  0  0  0  0  0  0  0  0  0
   -1.9361    0.0000    0.0000 C   0  0  0  0  0  0  0  0  0  0  0  0
   -0.4370    0.0000    0.0000 C   0  0  0  0  0  0  0  0  0  0  0  0
   -0.4370    0.0000    0.0000 O   0  0  0  0  0  0  0  0  0  0  0  0
    0.2776    0.0000    0.0000 C   0  0  0  0  0  0  0  0  0  0  0  0
    0.9919    0.0000    0.0000 C   0  0  0  0  0  0  0  0  0  0  0  0
    0.9919    0.0000    0.0000 C   0  0  0  0  0  0  0  0  0  0  0  0
    1.7064    0.0000    0.0000 C   0  0  0  0  0  0  0  0  0  0  0  0
    2.4209    0.0000    0.0000 C   0  0  0  0  0  0  0  0  0  0  0  0
    1.7064    0.0000    0.0000 C   0  0  0  0  0  0  0  0  0  0  0  0
    0.9919    0.0000    0.0000 C   0  0  0  0  0  0  0  0  0  0  0  0
    0.9919    0.0000    0.0000 C   0  0  0  0  0  0  0  0  0  0  0  0
    0.2776    0.0000    0.0000 O   0  0  0  0  0  0  0  0  0  0  0  0
    1.7064    0.0000    0.0000 O   0  0  0  0  0  0  0  0  0  0  0  0
  1  2  1  0      
  2  3  1  0      
  3  4  2  0      
  4  5  1  0      
  4  6  1  0      
  6  7  2  0      
  7  8  1  0      
  8  9  2  0      
  8 10  1  0      
 10 11  1  0      
  6 11  1  0      
  7 12  1  0      
 12 13  1  0      
 12 14  2  0      
  3 14  1  0      
 14 15  1  0      
 16 15  1  4      
 16 17  2  0      
 17 18  1  0      
 17 19  1  0      
 19 20  1  0      
 20 21  1  0      
 21 22  1  0      
 21 23  2  0      
M  END
>  <Bioactivity>
Mycophenolic acid is an an immunosuppresant drug and has potent anti-proliferative activity.

>  <CAS>
24280-93-1

>  <Col>
7

>  <Formula>
C17H20O6

>  <ID>
T1335

>  <Index>
596

>  <MOLENAME>
Mycophenolic acid

>  <MolWt>
320.34

>  <Pathways>
Metabolism

>  <Plate>
PLATE 008

>  <QR code>
1151480473

>  <Receptor>
UGT; DH

>  <Reference>
1. Dostalek M, et al. Drug Metab Dispos. 2011 Mar;39(3):448-55.

>  <Row>
D

>  <SMILES>
COC1=C(C)C2=C(C(=O)OC2)C(O)=C1CC=C(C)CCC(O)=O

>  <Target>
Dehydrogenase inhibitor

>  <Weight>
10.2mg

$$$$
Lab-1.sdf
  ChemDraw05232018482D

 62 68  0  0  0  0  0  0  0  0999 V2000
   -0.6552    0.0000    0.0000 C   0  0  0  0  0  0  0  0  0  0  0  0
   -0.2335    0.0000    0.0000 C   0  0  0  0  0  0  0  0  0  0  0  0
   -0.6366    0.0000    0.0000 O   0  0  0  0  0  0  0  0  0  0  0  0
    0.5914    0.0000    0.0000 O   0  0  0  0  0  0  0  0  0  0  0  0
    1.0131    0.0000    0.0000 C   0  0  0  0  0  0  0  0  0  0  0  0
    0.4616    0.0000    0.0000 C   0  0  0  0  0  0  0  0  0  0  0  0
   -0.2650    0.0000    0.0000 C   0  0  0  0  0  0  0  0  0  0  0  0
   -0.9842    0.0000    0.0000 C   0  0  0  0  0  0  0  0  0  0  0  0
   -0.2897    0.0000    0.0000 C   0  0  0  0  0  0  0  0  0  0  0  0
    0.4598    0.0000    0.0000 C   0  0  0  0  0  0  0  0  0  0  0  0
    1.2261    0.0000    0.0000 C   0  0  0  0  0  0  0  0  0  0  0  0
    1.4932    0.0000    0.0000 O   0  0  0  0  0  0  0  0  0  0  0  0
    2.0860    0.0000    0.0000 C   0  0  0  0  0  0  0  0  0  0  0  0
    2.4991    0.0000    0.0000 O   0  0  0  0  0  0  0  0  0  0  0  0
    2.0873    0.0000    0.0000 C   0  0  0  0  0  0  0  0  0  0  0  0
    1.2623    0.0000    0.0000 O   0  0  0  0  0  0  0  0  0  0  0  0
    2.5004    0.0000    0.0000 C   0  0  0  0  0  0  0  0  0  0  0  0
    3.3254    0.0000    0.0000 C   0  0  0  0  0  0  0  0  0  0  0  0
    3.7386    0.0000    0.0000 C   0  0  0  0  0  0  0  0  0  0  0  0
    3.3267    0.0000    0.0000 C   0  0  0  0  0  0  0  0  0  0  0  0
    2.5017    0.0000    0.0000 C   0  0  0  0  0  0  0  0  0  0  0  0
    2.0886    0.0000    0.0000 C   0  0  0  0  0  0  0  0  0  0  0  0
    2.6346    0.0000    0.0000 C   0  0  0  0  0  0  0  0  0  0  0  0
    3.3930    0.0000    0.0000 C   0  0  0  0  0  0  0  0  0  0  0  0
    3.8875    0.0000    0.0000 C   0  0  0  0  0  0  0  0  0  0  0  0
    4.5479    0.0000    0.0000 O   0  0  0  0  0  0  0  0  0  0  0  0
    4.0534    0.0000    0.0000 C   0  0  0  0  0  0  0  0  0  0  0  0
    3.9553    0.0000    0.0000 C   0  0  0  0  0  0  0  0  0  0  0  0
    3.1969    0.0000    0.0000 C   0  0  0  0  0  0  0  0  0  0  0  0
    3.0988    0.0000    0.0000 O   0  0  0  0  0  0  0  0  0  0  0  0
    2.5365    0.0000    0.0000 C   0  0  0  0  0  0  0  0  0  0  0  0
    2.5366    0.0000    0.0000 C   0  0  0  0  0  0  0  0  0  0  0  0
    1.8542    0.0000    0.0000 C   0  0  0  0  0  0  0  0  0  0  0  0
    2.0410    0.0000    0.0000 O   0  0  0  0  0  0  0  0  0  0  0  0
    2.8831    0.0000    0.0000 O   0  0  0  0  0  0  0  0  0  0  0  0
    3.1899    0.0000    0.0000 C   0  0  0  0  0  0  0  0  0  0  0  0
    4.0065    0.0000    0.0000 C   0  0  0  0  0  0  0  0  0  0  0  0
    2.6800    0.0000    0.0000 O   0  0  0  0  0  0  0  0  0  0  0  0
    0.9014    0.0000    0.0000 C   0  0  0  0  0  0  0  0  0  0  0  0
    1.7179    0.0000    0.0000 C   0  0  0  0  0  0  0  0  0  0  0  0
    1.4027    0.0000    0.0000 C   0  0  0  0  0  0  0  0  0  0  0  0
   -1.0013    0.0000    0.0000 O   0  0  0  0  0  0  0  0  0  0  0  0
   -0.9956    0.0000    0.0000 C   0  0  0  0  0  0  0  0  0  0  0  0
   -0.2784    0.0000    0.0000 O   0  0  0  0  0  0  0  0  0  0  0  0
   -1.7072    0.0000    0.0000 C   0  0  0  0  0  0  0  0  0  0  0  0
   -2.4245    0.0000    0.0000 O   0  0  0  0  0  0  0  0  0  0  0  0
   -1.7015    0.0000    0.0000 C   0  0  0  0  0  0  0  0  0  0  0  0
   -2.4131    0.0000    0.0000 N   0  0  0  0  0  0  0  0  0  0  0  0
   -2.4074    0.0000    0.0000 C   0  0  0  0  0  0  0  0  0  0  0  0
   -1.6901    0.0000    0.0000 O   0  0  0  0  0  0  0  0  0  0  0  0
   -3.1190    0.0000    0.0000 C   0  0  0  0  0  0  0  0  0  0  0  0
   -3.1133    0.0000    0.0000 C   0  0  0  0  0  0  0  0  0  0  0  0
   -3.8249    0.0000    0.0000 C   0  0  0  0  0  0  0  0  0  0  0  0
   -4.5422    0.0000    0.0000 C   0  0  0  0  0  0  0  0  0  0  0  0
   -4.5479    0.0000    0.0000 C   0  0  0  0  0  0  0  0  0  0  0  0
   -3.8363    0.0000    0.0000 C   0  0  0  0  0  0  0  0  0  0  0  0
   -0.9842    0.0000    0.0000 C   0  0  0  0  0  0  0  0  0  0  0  0
   -0.2726    0.0000    0.0000 C   0  0  0  0  0  0  0  0  0  0  0  0
    0.4446    0.0000    0.0000 C   0  0  0  0  0  0  0  0  0  0  0  0
    0.4503    0.0000    0.0000 C   0  0  0  0  0  0  0  0  0  0  0  0
   -0.2613    0.0000    0.0000 C   0  0  0  0  0  0  0  0  0  0  0  0
   -0.9785    0.0000    0.0000 C   0  0  0  0  0  0  0  0  0  0  0  0
  1  2  1  0      
  2  3  2  0      
  2  4  1  0      
  4  5  1  0      
  5  6  1  0      
  6  7  2  0      
  7  8  1  0      
  7  9  1  0      
  9 10  1  0      
 10 11  1  0      
 11 12  1  0      
 11 13  1  0      
 13 14  1  0      
 14 15  1  0      
 15 16  2  0      
 15 17  1  0      
 17 18  2  0      
 18 19  1  0      
 19 20  2  0      
 20 21  1  0      
 21 22  2  0      
 17 22  1  0      
 13 23  1  0      
 23 24  1  0      
 24 25  1  0      
 25 26  1  0      
 26 27  1  0      
 24 27  1  0      
 27 28  1  0      
 28 29  1  0      
 29 30  1  0      
 29 31  1  0      
 23 31  1  0      
 31 32  1  0      
 31 33  1  0      
  5 33  1  0      
 33 34  2  0      
 24 35  1  0      
 35 36  1  0      
 36 37  1  0      
 36 38  2  0      
 11 39  1  0      
  6 39  1  0      
 39 40  1  0      
 39 41  1  0      
  9 42  1  0      
 42 43  1  0      
 43 44  2  0      
 43 45  1  0      
 45 46  1  0      
 45 47  1  0      
 47 48  1  0      
 48 49  1  0      
 49 50  2  0      
 49 51  1  0      
 51 52  2  0      
 52 53  1  0      
 53 54  2  0      
 54 55  1  0      
 55 56  2  0      
 51 56  1  0      
 47 57  1  0      
 57 58  2  0      
 58 59  1  0      
 59 60  2  0      
 60 61  1  0      
 61 62  2  0      
 57 62  1  0      
M  END
>  <Bioactivity>
Paclitaxel is a novel antineoplastic agent, which was discovered in a screen of extracts of thousands of plants and natural products for antineoplastic activity by a National Y Institute program. Alou
ght it functions as a mitotic inhibitor like vinca alkaloids, paclitaxel promotes the polymerization of tubulin instead of inducing the disassembly of microtubules, which inhibits the microtubules dis
assembly and promotes the formation of excessively stable, dysfunctional microtubules. Paclitaxel has exhibited antitumor activity against a broad spectrum of human Ys, including ovarian, breast, head
 and neck, and lung Y, in a large number of studies.

>  <CAS>
33069-62-4

>  <Col>
8

>  <Formula>
C47H51NO14

>  <ID>
T0968

>  <Index>
597

>  <MOLENAME>
Paclitaxel

>  <MolWt>
853.92

>  <Pathways>
Cell Cycle/Checkpoint

>  <Plate>
PLATE 008

>  <QR code>
1151480474

>  <Receptor>
Bcl-2; Tubulin chain;  Microtubule-associated protein

>  <Reference>
1. Wang J, et al. AntiY Drugs. 2003, 14(1), 13-19.

>  <Row>
D

>  <SMILES>
CC(=O)OC1C2=C(C)C(CC(O)(C(OC(=O)C3=CC=CC=C3)C3C4(COC4CC(O)C3(C)C1=O)OC(C)=O)C2(C)C)OC(=O)C(O)C(NC(=O)C1=CC=CC=C1)C1=CC=CC=C1

>  <Target>
Bcl-2 inhibitor; Microtubule Assosiated inhibitor

>  <Weight>
10.3mg

$$$$
Lab-1.sdf
  ChemDraw05232018482D

 17 19  0  0  0  0  0  0  0  0999 V2000
    0.9213    0.0000    0.0000 C   0  0  0  0  0  0  0  0  0  0  0  0
    1.2112    0.0000    0.0000 C   0  0  0  0  0  0  0  0  0  0  0  0
    2.0065    0.0000    0.0000 C   0  0  0  0  0  0  0  0  0  0  0  0
    2.0435    0.0000    0.0000 C   0  0  0  0  0  0  0  0  0  0  0  0
    1.2711    0.0000    0.0000 C   0  0  0  0  0  0  0  0  0  0  0  0
    0.7567    0.0000    0.0000 C   0  0  0  0  0  0  0  0  0  0  0  0
   -0.0682    0.0000    0.0000 C   0  0  0  0  0  0  0  0  0  0  0  0
   -0.5227    0.0000    0.0000 O   0  0  0  0  0  0  0  0  0  0  0  0
   -1.3180    0.0000    0.0000 C   0  0  0  0  0  0  0  0  0  0  0  0
   -1.9630    0.0000    0.0000 O   0  0  0  0  0  0  0  0  0  0  0  0
   -1.3550    0.0000    0.0000 C   0  0  0  0  0  0  0  0  0  0  0  0
   -2.0435    0.0000    0.0000 C   0  0  0  0  0  0  0  0  0  0  0  0
   -0.5826    0.0000    0.0000 C   0  0  0  0  0  0  0  0  0  0  0  0
   -0.3990    0.0000    0.0000 C   0  0  0  0  0  0  0  0  0  0  0  0
    0.3442    0.0000    0.0000 C   0  0  0  0  0  0  0  0  0  0  0  0
    1.0875    0.0000    0.0000 C   0  0  0  0  0  0  0  0  0  0  0  0
    1.7325    0.0000    0.0000 C   0  0  0  0  0  0  0  0  0  0  0  0
  1  2  2  0      
  2  3  1  0      
  3  4  1  0      
  4  5  1  0      
  5  6  1  0      
  2  6  1  0      
  6  7  1  0      
  7  8  1  0      
  8  9  1  0      
  9 10  2  0      
  9 11  1  0      
 11 12  2  0      
 11 13  1  0      
  7 13  1  0      
 13 14  1  0      
 14 15  1  0      
 15 16  1  0      
  5 16  1  0      
 16 17  2  0      
M  END
>  <Bioactivity>
Dehydrocostus Lactone is a major sesquiterpene lactone isolated from the roots of Saussurea lappa.

>  <CAS>
477-43-0

>  <Col>
9

>  <Formula>
C15H18O2

>  <ID>
T2833

>  <Index>
598

>  <MOLENAME>
Dehydrocostus Lactone

>  <MolWt>
230.3

>  <Pathways>
Others

>  <Plate>
PLATE 008

>  <QR code>
1151480475

>  <Receptor>
Others

>  <Reference>
1. Dong GZ, et al. PhytOthers Res. 2015 May;29(5):680-6.

>  <Row>
D

>  <SMILES>
C=C1CCC2C1C1OC(=O)C(=C)C1CCC2=C

>  <Target>
Others

>  <Weight>
10.4mg

$$$$
Lab-1.sdf
  ChemDraw05232018482D

 68 75  0  0  0  0  0  0  0  0999 V2000
    0.6187    0.0000    0.0000 C   0  0  0  0  0  0  0  0  0  0  0  0
    1.0312    0.0000    0.0000 C   0  0  0  0  0  0  0  0  0  0  0  0
    0.6187    0.0000    0.0000 C   0  0  0  0  0  0  0  0  0  0  0  0
    1.0312    0.0000    0.0000 C   0  0  0  0  0  0  0  0  0  0  0  0
    1.8562    0.0000    0.0000 C   0  0  0  0  0  0  0  0  0  0  0  0
    2.2687    0.0000    0.0000 C   0  0  0  0  0  0  0  0  0  0  0  0
    3.0937    0.0000    0.0000 C   0  0  0  0  0  0  0  0  0  0  0  0
    3.5062    0.0000    0.0000 C   0  0  0  0  0  0  0  0  0  0  0  0
    3.9187    0.0000    0.0000 C   0  0  0  0  0  0  0  0  0  0  0  0
    3.0937    0.0000    0.0000 C   0  0  0  0  0  0  0  0  0  0  0  0
    3.5062    0.0000    0.0000 C   0  0  0  0  0  0  0  0  0  0  0  0
    4.3312    0.0000    0.0000 C   0  0  0  0  0  0  0  0  0  0  0  0
    4.7437    0.0000    0.0000 C   0  0  0  0  0  0  0  0  0  0  0  0
    5.5687    0.0000    0.0000 C   0  0  0  0  0  0  0  0  0  0  0  0
    5.1562    0.0000    0.0000 C   0  0  0  0  0  0  0  0  0  0  0  0
    5.9812    0.0000    0.0000 C   0  0  0  0  0  0  0  0  0  0  0  0
    6.8062    0.0000    0.0000 C   0  0  0  0  0  0  0  0  0  0  0  0
    7.2187    0.0000    0.0000 O   0  0  0  0  0  0  0  0  0  0  0  0
    7.2187    0.0000    0.0000 C   0  0  0  0  0  0  0  0  0  0  0  0
    8.0437    0.0000    0.0000 O   0  0  0  0  0  0  0  0  0  0  0  0
    6.8062    0.0000    0.0000 C   0  0  0  0  0  0  0  0  0  0  0  0
    6.6629    0.0000    0.0000 C   0  0  0  0  0  0  0  0  0  0  0  0
    7.5814    0.0000    0.0000 C   0  0  0  0  0  0  0  0  0  0  0  0
    7.7247    0.0000    0.0000 O   0  0  0  0  0  0  0  0  0  0  0  0
    5.9812    0.0000    0.0000 C   0  0  0  0  0  0  0  0  0  0  0  0
    5.5687    0.0000    0.0000 C   0  0  0  0  0  0  0  0  0  0  0  0
    5.9812    0.0000    0.0000 O   0  0  0  0  0  0  0  0  0  0  0  0
    4.7437    0.0000    0.0000 C   0  0  0  0  0  0  0  0  0  0  0  0
    4.3312    0.0000    0.0000 C   0  0  0  0  0  0  0  0  0  0  0  0
    4.4174    0.0000    0.0000 C   0  0  0  0  0  0  0  0  0  0  0  0
    2.2687    0.0000    0.0000 C   0  0  0  0  0  0  0  0  0  0  0  0
    1.8562    0.0000    0.0000 C   0  0  0  0  0  0  0  0  0  0  0  0
    2.2687    0.0000    0.0000 C   0  0  0  0  0  0  0  0  0  0  0  0
    1.4437    0.0000    0.0000 C   0  0  0  0  0  0  0  0  0  0  0  0
    1.8562    0.0000    0.0000 O   0  0  0  0  0  0  0  0  0  0  0  0
    0.6187    0.0000    0.0000 O   0  0  0  0  0  0  0  0  0  0  0  0
    0.2062    0.0000    0.0000 C   0  0  0  0  0  0  0  0  0  0  0  0
   -0.6187    0.0000    0.0000 O   0  0  0  0  0  0  0  0  0  0  0  0
   -1.0312    0.0000    0.0000 C   0  0  0  0  0  0  0  0  0  0  0  0
   -1.8562    0.0000    0.0000 C   0  0  0  0  0  0  0  0  0  0  0  0
   -2.2687    0.0000    0.0000 O   0  0  0  0  0  0  0  0  0  0  0  0
   -3.0937    0.0000    0.0000 C   0  0  0  0  0  0  0  0  0  0  0  0
   -3.5062    0.0000    0.0000 O   0  0  0  0  0  0  0  0  0  0  0  0
   -4.3312    0.0000    0.0000 C   0  0  0  0  0  0  0  0  0  0  0  0
   -4.7437    0.0000    0.0000 C   0  0  0  0  0  0  0  0  0  0  0  0
   -5.5687    0.0000    0.0000 O   0  0  0  0  0  0  0  0  0  0  0  0
   -4.7437    0.0000    0.0000 C   0  0  0  0  0  0  0  0  0  0  0  0
   -5.5687    0.0000    0.0000 O   0  0  0  0  0  0  0  0  0  0  0  0
   -5.9812    0.0000    0.0000 C   0  0  0  0  0  0  0  0  0  0  0  0
   -5.5687    0.0000    0.0000 O   0  0  0  0  0  0  0  0  0  0  0  0
   -5.9812    0.0000    0.0000 C   0  0  0  0  0  0  0  0  0  0  0  0
   -5.5687    0.0000    0.0000 C   0  0  0  0  0  0  0  0  0  0  0  0
   -6.8062    0.0000    0.0000 C   0  0  0  0  0  0  0  0  0  0  0  0
   -7.2187    0.0000    0.0000 O   0  0  0  0  0  0  0  0  0  0  0  0
   -7.2187    0.0000    0.0000 C   0  0  0  0  0  0  0  0  0  0  0  0
   -8.0437    0.0000    0.0000 O   0  0  0  0  0  0  0  0  0  0  0  0
   -6.8062    0.0000    0.0000 C   0  0  0  0  0  0  0  0  0  0  0  0
   -7.2187    0.0000    0.0000 O   0  0  0  0  0  0  0  0  0  0  0  0
   -4.3312    0.0000    0.0000 C   0  0  0  0  0  0  0  0  0  0  0  0
   -4.7437    0.0000    0.0000 O   0  0  0  0  0  0  0  0  0  0  0  0
   -3.5062    0.0000    0.0000 C   0  0  0  0  0  0  0  0  0  0  0  0
   -3.0937    0.0000    0.0000 O   0  0  0  0  0  0  0  0  0  0  0  0
   -0.6187    0.0000    0.0000 C   0  0  0  0  0  0  0  0  0  0  0  0
   -1.0312    0.0000    0.0000 O   0  0  0  0  0  0  0  0  0  0  0  0
    0.2062    0.0000    0.0000 C   0  0  0  0  0  0  0  0  0  0  0  0
    0.6187    0.0000    0.0000 O   0  0  0  0  0  0  0  0  0  0  0  0
    0.6187    0.0000    0.0000 C   0  0  0  0  0  0  0  0  0  0  0  0
    1.4437    0.0000    0.0000 O   0  0  0  0  0  0  0  0  0  0  0  0
  1  2  1  0      
  2  3  1  0      
  3  4  1  0      
  4  5  1  0      
  5  6  1  0      
  6  7  1  0      
  7  8  1  0      
  8  9  1  0      
  8 10  1  0      
 10 11  2  0      
 11 12  1  0      
 12 13  1  0      
 13 14  1  0      
 14 15  1  0      
 14 16  1  0      
 16 17  1  0      
 17 18  1  0      
 17 19  1  0      
 19 20  1  0      
 19 21  1  0      
 21 22  1  0      
 21 23  1  0      
 23 24  1  0      
 21 25  1  0      
 14 25  1  0      
 25 26  1  0      
 26 27  1  0      
 26 28  1  0      
 28 29  1  0      
  8 29  1  0      
 13 29  1  0      
 29 30  1  0      
 10 31  1  0      
  5 31  1  0      
 31 32  1  0      
  2 32  1  0      
 32 33  1  0      
  5 34  1  0      
 34 35  2  0      
 34 36  1  0      
 36 37  1  0      
 37 38  1  0      
 38 39  1  0      
 39 40  1  0      
 40 41  1  0      
 41 42  1  0      
 42 43  1  0      
 43 44  1  0      
 44 45  1  0      
 45 46  1  0      
 44 47  1  0      
 47 48  1  0      
 48 49  1  0      
 49 50  1  0      
 50 51  1  0      
 51 52  1  0      
 51 53  1  0      
 53 54  1  0      
 53 55  1  0      
 55 56  1  0      
 55 57  1  0      
 49 57  1  0      
 57 58  1  0      
 47 59  1  0      
 59 60  1  0      
 59 61  1  0      
 42 61  1  0      
 61 62  1  0      
 39 63  1  0      
 63 64  1  0      
 63 65  1  0      
 65 66  1  0      
 65 67  1  0      
 37 67  1  0      
 67 68  1  0      
M  END
>  <Bioactivity>
Extracted from Centella asiatica (L. ) Urban; Suitability:Water,ethanol;Store the product in sealed,cool and dry condition

>  <CAS>
34540-22-2

>  <Col>
10

>  <Formula>
C48H78O20

>  <ID>
T2813

>  <Index>
599

>  <MOLENAME>
Madecassoside

>  <MolWt>
975.12

>  <Pathways>
Others

>  <Plate>
PLATE 008

>  <QR code>
1151480476

>  <Receptor>
Others

>  <Reference>
1. Lin X, et al. Pharmacol Biochem Behav. 2014 Sep;124:434-42. 

>  <Row>
D

>  <SMILES>
CC1CCC2(CCC3(C)C(=CCC4C5(C)CC(O)C(O)C(C)(CO)C5C(O)CC34C)C2C1C)C(=O)OC1OC(COC2OC(CO)C(OC3OC(C)C(O)C(O)C3O)C(O)C2O)C(O)C(O)C1O

>  <Target>
Others

>  <Weight>
10.2mg

$$$$
Lab-1.sdf
  ChemDraw05232018482D

 27 27  0  0  0  0  0  0  0  0999 V2000
   -4.5152    0.0000    0.0000 Cl  0  0  0  0  0  0  0  0  0  0  0  0
    1.6573    0.0000    0.0000 C   0  0  0  0  0  0  0  0  0  0  0  0
    1.6573    0.0000    0.0000 C   0  0  0  0  0  0  0  0  0  0  0  0
    0.9429    0.0000    0.0000 O   0  0  0  0  0  0  0  0  0  0  0  0
    0.9429    0.0000    0.0000 C   0  0  0  0  0  0  0  0  0  0  0  0
    0.2284    0.0000    0.0000 O   0  0  0  0  0  0  0  0  0  0  0  0
   -0.4861    0.0000    0.0000 C   0  0  0  0  0  0  0  0  0  0  0  0
   -1.2005    0.0000    0.0000 C   0  0  0  0  0  0  0  0  0  0  0  0
   -1.2005    0.0000    0.0000 O   0  0  0  0  0  0  0  0  0  0  0  0
   -1.9150    0.0000    0.0000 C   0  0  0  0  0  0  0  0  0  0  0  0
   -2.6295    0.0000    0.0000 O   0  0  0  0  0  0  0  0  0  0  0  0
   -1.9150    0.0000    0.0000 C   0  0  0  0  0  0  0  0  0  0  0  0
   -2.6295    0.0000    0.0000 O   0  0  0  0  0  0  0  0  0  0  0  0
   -1.2005    0.0000    0.0000 C   0  0  0  0  0  0  0  0  0  0  0  0
   -1.2005    0.0000    0.0000 O   0  0  0  0  0  0  0  0  0  0  0  0
   -0.4861    0.0000    0.0000 C   0  0  0  0  0  0  0  0  0  0  0  0
    0.2284    0.0000    0.0000 O   0  0  0  0  0  0  0  0  0  0  0  0
    1.6573    0.0000    0.0000 C   0  0  0  0  0  0  0  0  0  0  0  0
    1.6573    0.0000    0.0000 N   0  0  0  0  0  0  0  0  0  0  0  0
    2.3718    0.0000    0.0000 C   0  0  0  0  0  0  0  0  0  0  0  0
    2.3718    0.0000    0.0000 C   0  0  0  0  0  0  0  0  0  0  0  0
    3.0863    0.0000    0.0000 N   0  0  0  0  0  0  0  0  0  0  0  0
    3.0863    0.0000    0.0000 C   0  0  0  0  0  0  0  0  0  0  0  0
    2.3718    0.0000    0.0000 N   0  0  0  0  0  0  0  0  0  0  0  0
    3.8008    0.0000    0.0000 C   0  0  0  0  0  0  0  0  0  0  0  0
    4.5152    0.0000    0.0000 O   0  0  0  0  0  0  0  0  0  0  0  0
    3.8008    0.0000    0.0000 O   0  0  0  0  0  0  0  0  0  0  0  0
  2  3  1  0      
  3  4  1  0      
  4  5  1  0      
  5  6  1  0      
  6  7  1  0      
  7  8  1  0      
  8  9  1  0      
  8 10  1  0      
 10 11  1  0      
 10 12  1  0      
 12 13  1  0      
 12 14  1  0      
 14 15  1  0      
 14 16  1  0      
  7 16  1  0      
 16 17  1  0      
  5 18  1  0      
 18 19  1  0      
 18 20  1  0      
 20 21  1  0      
  3 21  1  0      
 22 21  1  4      
 22 23  2  0      
 23 24  1  0      
 23 25  1  0      
 25 26  1  0      
 25 27  2  0      
M  END
>  <Bioactivity>
Kasugamycin (Ksg) is an aminoglycoside antibiotic that was originally isolated in 1965, from Streptomyces kasugaensis, a Streptomyces strain found near the Kasuga shrine in Nara, Japan. Kasugamycin wa
s discovered by Hamao Umezawa, who also discovered kanamycin and bleomycin, as a drug which could prevent growth of a fungus causing rice blast disease.

>  <CAS>
19408-46-9

>  <Col>
11

>  <Formula>
C14H26ClN3O9

>  <ID>
T2762

>  <Index>
600

>  <MOLENAME>
Kasugamycin hydrochloride

>  <MolWt>
415.83

>  <Pathways>
Microbiology & Virology

>  <Plate>
PLATE 008

>  <QR code>
1151480477

>  <Receptor>
antifungal

>  <Reference>
1. Schluenzen F, et al. Nat. Struct. Mol. Biol. 13, 871?878

>  <Row>
D

>  <SMILES>
Cl.CC1OC(OC2C(O)C(O)C(O)C(O)C2O)C(N)CC1N=C(N)C(O)=O

>  <Target>
Antifungal

>  <Weight>
10.4mg

$$$$
Lab-1.sdf
  ChemDraw05232018482D

 23 26  0  0  0  0  0  0  0  0999 V2000
   -1.1601    0.0000    0.0000 C   0  0  0  0  0  0  0  0  0  0  0  0
   -0.8438    0.0000    0.0000 C   0  0  0  0  0  0  0  0  0  0  0  0
    0.0671    0.0000    0.0000 C   0  0  0  0  0  0  0  0  0  0  0  0
   -1.6842    0.0000    0.0000 C   0  0  0  0  0  0  0  0  0  0  0  0
   -0.4868    0.0000    0.0000 C   0  0  0  0  0  0  0  0  0  0  0  0
    0.2631    0.0000    0.0000 C   0  0  0  0  0  0  0  0  0  0  0  0
    0.8220    0.0000    0.0000 C   0  0  0  0  0  0  0  0  0  0  0  0
    0.4176    0.0000    0.0000 C   0  0  0  0  0  0  0  0  0  0  0  0
   -0.3913    0.0000    0.0000 C   0  0  0  0  0  0  0  0  0  0  0  0
   -0.9501    0.0000    0.0000 C   0  0  0  0  0  0  0  0  0  0  0  0
   -1.6999    0.0000    0.0000 C   0  0  0  0  0  0  0  0  0  0  0  0
   -2.5678    0.0000    0.0000 O   0  0  0  0  0  0  0  0  0  0  0  0
   -1.6045    0.0000    0.0000 O   0  0  0  0  0  0  0  0  0  0  0  0
   -0.7957    0.0000    0.0000 C   0  0  0  0  0  0  0  0  0  0  0  0
   -0.2368    0.0000    0.0000 O   0  0  0  0  0  0  0  0  0  0  0  0
    0.5130    0.0000    0.0000 C   0  0  0  0  0  0  0  0  0  0  0  0
    1.2977    0.0000    0.0000 O   0  0  0  0  0  0  0  0  0  0  0  0
   -0.4938    0.0000    0.0000 O   0  0  0  0  0  0  0  0  0  0  0  0
    0.9764    0.0000    0.0000 C   0  0  0  0  0  0  0  0  0  0  0  0
    1.7262    0.0000    0.0000 C   0  0  0  0  0  0  0  0  0  0  0  0
    2.5678    0.0000    0.0000 O   0  0  0  0  0  0  0  0  0  0  0  0
    1.6307    0.0000    0.0000 O   0  0  0  0  0  0  0  0  0  0  0  0
   -1.3962    0.0000    0.0000 O   0  0  0  0  0  0  0  0  0  0  0  0
  1  2  1  0      
  2  3  1  0      
  2  4  1  0      
  2  5  1  0      
  5  6  1  0      
  6  7  1  0      
  7  8  1  0      
  8  9  1  0      
  5  9  1  0      
  9 10  1  0      
 10 11  1  0      
 11 12  2  0      
 11 13  1  0      
 13 14  1  0      
  9 14  1  0      
 14 15  1  0      
 15 16  1  0      
  8 16  1  0      
 16 17  2  0      
 10 18  1  0      
  8 19  1  0      
 19 20  1  0      
 20 21  2  0      
 20 22  1  0      
  7 22  1  0      
  5 23  1  0      
M  END
>  <Bioactivity>
Bilobalide, a bioactive from Gingko biloba,is active on hypoxia induced alterations

>  <CAS>
33570-04-6

>  <Col>
2

>  <Formula>
C15H18O8

>  <ID>
T2808

>  <Index>
601

>  <MOLENAME>
Bilobalide

>  <MolWt>
326.3

>  <Pathways>
Others

>  <Plate>
PLATE 008

>  <QR code>
1151480465

>  <Receptor>
Others

>  <Reference>
1. Lu L, et al. Clin Exp Dermatol. 2015 Jul 14.

>  <Row>
E

>  <SMILES>
CC(C)(C)C1(CC2C3(C14C(C(=O)OC4OC3=O)O)CC(=O)O2)O

>  <Target>
Others

>  <Weight>
10.2mg

$$$$
Lab-1.sdf
  ChemDraw05232018482D

 22 24  0  0  0  0  0  0  0  0999 V2000
   -3.8619    0.0000    0.0000 Br  0  0  0  0  0  0  0  0  0  0  0  0
   -1.5048    0.0000    0.0000 C   0  0  0  0  0  0  0  0  0  0  0  0
   -0.6982    0.0000    0.0000 O   0  0  0  0  0  0  0  0  0  0  0  0
   -0.4449    0.0000    0.0000 C   0  0  0  0  0  0  0  0  0  0  0  0
    0.3617    0.0000    0.0000 C   0  0  0  0  0  0  0  0  0  0  0  0
    1.0302    0.0000    0.0000 O   0  0  0  0  0  0  0  0  0  0  0  0
    1.6965    0.0000    0.0000 C   0  0  0  0  0  0  0  0  0  0  0  0
    2.5039    0.0000    0.0000 C   0  0  0  0  0  0  0  0  0  0  0  0
    3.0546    0.0000    0.0000 C   0  0  0  0  0  0  0  0  0  0  0  0
    3.8619    0.0000    0.0000 O   0  0  0  0  0  0  0  0  0  0  0  0
    2.7979    0.0000    0.0000 C   0  0  0  0  0  0  0  0  0  0  0  0
    1.9906    0.0000    0.0000 C   0  0  0  0  0  0  0  0  0  0  0  0
    1.4399    0.0000    0.0000 C   0  0  0  0  0  0  0  0  0  0  0  0
    1.4030    0.0000    0.0000 C   0  0  0  0  0  0  0  0  0  0  0  0
    1.6233    0.0000    0.0000 C   0  0  0  0  0  0  0  0  0  0  0  0
    0.8473    0.0000    0.0000 N   0  0  0  0  0  0  0  0  0  0  0  0
    0.7054    0.0000    0.0000 C   0  0  0  0  0  0  0  0  0  0  0  0
    0.2081    0.0000    0.0000 C   0  0  0  0  0  0  0  0  0  0  0  0
    0.0991    0.0000    0.0000 C   0  0  0  0  0  0  0  0  0  0  0  0
   -0.7451    0.0000    0.0000 C   0  0  0  0  0  0  0  0  0  0  0  0
   -0.9983    0.0000    0.0000 C   0  0  0  0  0  0  0  0  0  0  0  0
    0.6149    0.0000    0.0000 C   0  0  0  0  0  0  0  0  0  0  0  0
  2  3  1  0      
  3  4  1  0      
  4  5  2  0      
  5  6  1  0      
  6  7  1  0      
  7  8  1  0      
  8  9  1  0      
  9 10  1  0      
  9 11  1  0      
 11 12  2  0      
 12 13  1  0      
  7 13  1  0      
 13 14  1  0      
 14 15  1  0      
 15 16  1  0      
 16 17  1  0      
 16 18  1  0      
 18 19  1  0      
 19 20  1  0      
 20 21  2  0      
  4 21  1  0      
 19 22  2  0      
  5 22  1  0      
 13 22  1  0      
M  END
>  <Bioactivity>
Galanthamine hydrobromide is a long-acting, centrally active acetylcholinesterase(AChE) inhibitor (IC50 = 410 nM) and allosteric potentiator at neuronal nicotinic ACh receptors.

>  <CAS>
1953-04-4

>  <Col>
3

>  <Formula>
C17H21NO3?HBr

>  <ID>
T0086

>  <Index>
602

>  <MOLENAME>
Galanthamine HBr

>  <MolWt>
368.27

>  <Pathways>
Neuroscience

>  <Plate>
PLATE 008

>  <QR code>
1151480464

>  <Receptor>
AChE ; Neuronal AChR

>  <Reference>
1. Thomsen T, et al. Eur J Clin Chem Clin Biochem, 1991, 29(8), 487-492.

>  <Row>
E

>  <SMILES>
Br.COC1=C2OC3CC(O)C=CC33CCN(C)CC(C=C1)=C23

>  <Target>
AChE inhibitor; AChR modulator

>  <Weight>
10.1mg

$$$$
Lab-1.sdf
  ChemDraw05232018482D

 36 39  0  0  0  0  0  0  0  0999 V2000
   -3.1502    0.0000    0.0000 C   0  0  0  0  0  0  0  0  0  0  0  0
   -2.4358    0.0000    0.0000 N   0  0  0  0  0  0  0  0  0  0  0  0
   -2.4358    0.0000    0.0000 C   0  0  0  0  0  0  0  0  0  0  0  0
   -3.1502    0.0000    0.0000 C   0  0  0  0  0  0  0  0  0  0  0  0
   -3.1502    0.0000    0.0000 C   0  0  0  0  0  0  0  0  0  0  0  0
   -3.8647    0.0000    0.0000 N   0  0  0  0  0  0  0  0  0  0  0  0
   -2.4358    0.0000    0.0000 C   0  0  0  0  0  0  0  0  0  0  0  0
   -2.4358    0.0000    0.0000 O   0  0  0  0  0  0  0  0  0  0  0  0
   -1.7213    0.0000    0.0000 C   0  0  0  0  0  0  0  0  0  0  0  0
   -1.0068    0.0000    0.0000 O   0  0  0  0  0  0  0  0  0  0  0  0
   -1.0068    0.0000    0.0000 C   0  0  0  0  0  0  0  0  0  0  0  0
   -1.7213    0.0000    0.0000 O   0  0  0  0  0  0  0  0  0  0  0  0
   -1.7213    0.0000    0.0000 C   0  0  0  0  0  0  0  0  0  0  0  0
   -2.4358    0.0000    0.0000 C   0  0  0  0  0  0  0  0  0  0  0  0
   -2.4358    0.0000    0.0000 O   0  0  0  0  0  0  0  0  0  0  0  0
   -1.0068    0.0000    0.0000 C   0  0  0  0  0  0  0  0  0  0  0  0
   -1.0068    0.0000    0.0000 O   0  0  0  0  0  0  0  0  0  0  0  0
   -0.2924    0.0000    0.0000 C   0  0  0  0  0  0  0  0  0  0  0  0
    0.4923    0.0000    0.0000 O   0  0  0  0  0  0  0  0  0  0  0  0
    0.9772    0.0000    0.0000 C   0  0  0  0  0  0  0  0  0  0  0  0
    0.4923    0.0000    0.0000 O   0  0  0  0  0  0  0  0  0  0  0  0
   -0.2924    0.0000    0.0000 C   0  0  0  0  0  0  0  0  0  0  0  0
    1.3897    0.0000    0.0000 O   0  0  0  0  0  0  0  0  0  0  0  0
    2.2147    0.0000    0.0000 C   0  0  0  0  0  0  0  0  0  0  0  0
    2.6272    0.0000    0.0000 C   0  0  0  0  0  0  0  0  0  0  0  0
    2.2147    0.0000    0.0000 N   0  0  0  0  0  0  0  0  0  0  0  0
    3.4522    0.0000    0.0000 C   0  0  0  0  0  0  0  0  0  0  0  0
    3.8647    0.0000    0.0000 O   0  0  0  0  0  0  0  0  0  0  0  0
    2.6272    0.0000    0.0000 C   0  0  0  0  0  0  0  0  0  0  0  0
    3.4522    0.0000    0.0000 O   0  0  0  0  0  0  0  0  0  0  0  0
    2.2147    0.0000    0.0000 C   0  0  0  0  0  0  0  0  0  0  0  0
    2.6272    0.0000    0.0000 O   0  0  0  0  0  0  0  0  0  0  0  0
    1.3897    0.0000    0.0000 C   0  0  0  0  0  0  0  0  0  0  0  0
    0.9772    0.0000    0.0000 O   0  0  0  0  0  0  0  0  0  0  0  0
   -1.7213    0.0000    0.0000 C   0  0  0  0  0  0  0  0  0  0  0  0
   -1.0068    0.0000    0.0000 O   0  0  0  0  0  0  0  0  0  0  0  0
  1  2  1  0      
  2  3  1  0      
  3  4  1  0      
  4  5  1  0      
  5  6  1  0      
  5  7  1  0      
  7  8  1  0      
  7  9  1  0      
  9 10  1  0      
 10 11  1  0      
 11 12  1  0      
 12 13  1  0      
 13 14  1  0      
 14 15  1  0      
 13 16  1  0      
 16 17  1  0      
 16 18  1  0      
 18 19  1  0      
 19 20  1  0      
 20 21  1  0      
 21 22  1  0      
 11 22  1  0      
 18 22  1  0      
 20 23  1  0      
 23 24  1  0      
 24 25  1  0      
 25 26  1  0      
 25 27  1  0      
 27 28  1  0      
 24 29  1  0      
 29 30  1  0      
 29 31  1  0      
 31 32  1  0      
 31 33  1  0      
 20 33  1  0      
 33 34  1  0      
  9 35  1  0      
  3 35  1  0      
 35 36  1  0      
M  END
>  <Bioactivity>
Hygromycin B, a selective antibiotic that is effective on most bacteria, fungi and higher eukaryotes, inhibits protein synthesis by interfering with translocation and causing mistranslation at the 70S
 ribosome.

>  <CAS>
31282-04-9

>  <Col>
4

>  <Formula>
C20H37N3O13

>  <ID>
T1022

>  <Index>
603

>  <MOLENAME>
Hygromycin B

>  <MolWt>
527.52

>  <Pathways>
Microbiology & Virology

>  <Plate>
PLATE 008

>  <QR code>
1151480463

>  <Receptor>
70S ribosome

>  <Reference>
1. Brodersen DE, et al. Cell, 2000, 103(7), 1143-1154.

>  <Row>
E

>  <SMILES>
CNC1CC(N)C(O)C(OC2OC(CO)C(O)C3OC4(OC23)OC(C(N)CO)C(O)C(O)C4O)C1O

>  <Target>
Antibiotic

>  <Weight>
10.1mg

$$$$
Lab-1.sdf
  ChemDraw05232018482D

132145  0  0  0  0  0  0  0  0999 V2000
   -0.2514    0.0000    0.0000 C   0  0  0  0  0  0  0  0  0  0  0  0
   -0.1052    0.0000    0.0000 C   0  0  0  0  0  0  0  0  0  0  0  0
   -0.7249    0.0000    0.0000 C   0  0  0  0  0  0  0  0  0  0  0  0
   -0.5787    0.0000    0.0000 C   0  0  0  0  0  0  0  0  0  0  0  0
   -1.1983    0.0000    0.0000 C   0  0  0  0  0  0  0  0  0  0  0  0
   -1.0521    0.0000    0.0000 C   0  0  0  0  0  0  0  0  0  0  0  0
   -1.6717    0.0000    0.0000 C   0  0  0  0  0  0  0  0  0  0  0  0
   -1.5255    0.0000    0.0000 C   0  0  0  0  0  0  0  0  0  0  0  0
   -0.7596    0.0000    0.0000 C   0  0  0  0  0  0  0  0  0  0  0  0
   -0.1399    0.0000    0.0000 C   0  0  0  0  0  0  0  0  0  0  0  0
   -0.2861    0.0000    0.0000 O   0  0  0  0  0  0  0  0  0  0  0  0
    0.6260    0.0000    0.0000 N   0  0  0  0  0  0  0  0  0  0  0  0
    0.7924    0.0000    0.0000 C   0  0  0  0  0  0  0  0  0  0  0  0
    1.6042    0.0000    0.0000 C   0  0  0  0  0  0  0  0  0  0  0  0
    1.8887    0.0000    0.0000 O   0  0  0  0  0  0  0  0  0  0  0  0
    2.1663    0.0000    0.0000 C   0  0  0  0  0  0  0  0  0  0  0  0
    2.8630    0.0000    0.0000 O   0  0  0  0  0  0  0  0  0  0  0  0
    1.6866    0.0000    0.0000 C   0  0  0  0  0  0  0  0  0  0  0  0
    2.1338    0.0000    0.0000 C   0  0  0  0  0  0  0  0  0  0  0  0
    1.7690    0.0000    0.0000 O   0  0  0  0  0  0  0  0  0  0  0  0
    0.8748    0.0000    0.0000 O   0  0  0  0  0  0  0  0  0  0  0  0
    0.3126    0.0000    0.0000 C   0  0  0  0  0  0  0  0  0  0  0  0
   -0.5239    0.0000    0.0000 O   0  0  0  0  0  0  0  0  0  0  0  0
   -0.6616    0.0000    0.0000 C   0  0  0  0  0  0  0  0  0  0  0  0
    0.0096    0.0000    0.0000 C   0  0  0  0  0  0  0  0  0  0  0  0
   -0.3174    0.0000    0.0000 O   0  0  0  0  0  0  0  0  0  0  0  0
   -1.0919    0.0000    0.0000 C   0  0  0  0  0  0  0  0  0  0  0  0
   -1.7500    0.0000    0.0000 C   0  0  0  0  0  0  0  0  0  0  0  0
   -2.4913    0.0000    0.0000 Cl  0  0  0  0  0  0  0  0  0  0  0  0
   -2.5470    0.0000    0.0000 C   0  0  0  0  0  0  0  0  0  0  0  0
   -2.8117    0.0000    0.0000 C   0  0  0  0  0  0  0  0  0  0  0  0
   -3.4778    0.0000    0.0000 C   0  0  0  0  0  0  0  0  0  0  0  0
   -3.8034    0.0000    0.0000 C   0  0  0  0  0  0  0  0  0  0  0  0
   -4.5993    0.0000    0.0000 N   0  0  0  0  0  0  0  0  0  0  0  0
   -5.1127    0.0000    0.0000 C   0  0  0  0  0  0  0  0  0  0  0  0
   -5.2719    0.0000    0.0000 O   0  0  0  0  0  0  0  0  0  0  0  0
   -5.8240    0.0000    0.0000 C   0  0  0  0  0  0  0  0  0  0  0  0
   -6.4320    0.0000    0.0000 N   0  0  0  0  0  0  0  0  0  0  0  0
   -6.1348    0.0000    0.0000 C   0  0  0  0  0  0  0  0  0  0  0  0
   -5.6069    0.0000    0.0000 C   0  0  0  0  0  0  0  0  0  0  0  0
   -5.8621    0.0000    0.0000 C   0  0  0  0  0  0  0  0  0  0  0  0
   -5.2781    0.0000    0.0000 O   0  0  0  0  0  0  0  0  0  0  0  0
   -4.4441    0.0000    0.0000 C   0  0  0  0  0  0  0  0  0  0  0  0
   -3.9028    0.0000    0.0000 C   0  0  0  0  0  0  0  0  0  0  0  0
   -3.0948    0.0000    0.0000 C   0  0  0  0  0  0  0  0  0  0  0  0
   -2.6520    0.0000    0.0000 O   0  0  0  0  0  0  0  0  0  0  0  0
   -2.8233    0.0000    0.0000 C   0  0  0  0  0  0  0  0  0  0  0  0
   -3.3360    0.0000    0.0000 C   0  0  0  0  0  0  0  0  0  0  0  0
   -4.1431    0.0000    0.0000 C   0  0  0  0  0  0  0  0  0  0  0  0
   -3.0384    0.0000    0.0000 C   0  0  0  0  0  0  0  0  0  0  0  0
   -3.4195    0.0000    0.0000 N   0  0  0  0  0  0  0  0  0  0  0  0
   -3.5011    0.0000    0.0000 C   0  0  0  0  0  0  0  0  0  0  0  0
   -2.7689    0.0000    0.0000 O   0  0  0  0  0  0  0  0  0  0  0  0
   -2.2298    0.0000    0.0000 C   0  0  0  0  0  0  0  0  0  0  0  0
   -1.5524    0.0000    0.0000 O   0  0  0  0  0  0  0  0  0  0  0  0
   -1.4985    0.0000    0.0000 N   0  0  0  0  0  0  0  0  0  0  0  0
   -0.7443    0.0000    0.0000 C   0  0  0  0  0  0  0  0  0  0  0  0
   -0.8607    0.0000    0.0000 C   0  0  0  0  0  0  0  0  0  0  0  0
   -1.5008    0.0000    0.0000 C   0  0  0  0  0  0  0  0  0  0  0  0
   -1.3859    0.0000    0.0000 C   0  0  0  0  0  0  0  0  0  0  0  0
   -0.8474    0.0000    0.0000 O   0  0  0  0  0  0  0  0  0  0  0  0
    0.0380    0.0000    0.0000 C   0  0  0  0  0  0  0  0  0  0  0  0
    0.6076    0.0000    0.0000 C   0  0  0  0  0  0  0  0  0  0  0  0
    1.1924    0.0000    0.0000 Cl  0  0  0  0  0  0  0  0  0  0  0  0
    1.4116    0.0000    0.0000 C   0  0  0  0  0  0  0  0  0  0  0  0
    1.7880    0.0000    0.0000 C   0  0  0  0  0  0  0  0  0  0  0  0
    1.3213    0.0000    0.0000 C   0  0  0  0  0  0  0  0  0  0  0  0
    0.4923    0.0000    0.0000 C   0  0  0  0  0  0  0  0  0  0  0  0
    2.3903    0.0000    0.0000 C   0  0  0  0  0  0  0  0  0  0  0  0
    3.1414    0.0000    0.0000 O   0  0  0  0  0  0  0  0  0  0  0  0
    3.0199    0.0000    0.0000 C   0  0  0  0  0  0  0  0  0  0  0  0
    2.2893    0.0000    0.0000 O   0  0  0  0  0  0  0  0  0  0  0  0
    2.2332    0.0000    0.0000 C   0  0  0  0  0  0  0  0  0  0  0  0
    1.5027    0.0000    0.0000 C   0  0  0  0  0  0  0  0  0  0  0  0
    1.4466    0.0000    0.0000 O   0  0  0  0  0  0  0  0  0  0  0  0
    2.9078    0.0000    0.0000 C   0  0  0  0  0  0  0  0  0  0  0  0
    2.8519    0.0000    0.0000 O   0  0  0  0  0  0  0  0  0  0  0  0
    3.6385    0.0000    0.0000 C   0  0  0  0  0  0  0  0  0  0  0  0
    4.3130    0.0000    0.0000 O   0  0  0  0  0  0  0  0  0  0  0  0
    3.6945    0.0000    0.0000 C   0  0  0  0  0  0  0  0  0  0  0  0
    4.5291    0.0000    0.0000 N   0  0  0  0  0  0  0  0  0  0  0  0
    5.0782    0.0000    0.0000 C   0  0  0  0  0  0  0  0  0  0  0  0
    4.8334    0.0000    0.0000 C   0  0  0  0  0  0  0  0  0  0  0  0
    5.8722    0.0000    0.0000 O   0  0  0  0  0  0  0  0  0  0  0  0
    2.7039    0.0000    0.0000 C   0  0  0  0  0  0  0  0  0  0  0  0
    2.3239    0.0000    0.0000 N   0  0  0  0  0  0  0  0  0  0  0  0
    1.8284    0.0000    0.0000 C   0  0  0  0  0  0  0  0  0  0  0  0
    1.9014    0.0000    0.0000 O   0  0  0  0  0  0  0  0  0  0  0  0
    1.6232    0.0000    0.0000 C   0  0  0  0  0  0  0  0  0  0  0  0
    0.8291    0.0000    0.0000 N   0  0  0  0  0  0  0  0  0  0  0  0
    0.0069    0.0000    0.0000 C   0  0  0  0  0  0  0  0  0  0  0  0
   -0.1999    0.0000    0.0000 O   0  0  0  0  0  0  0  0  0  0  0  0
    2.2837    0.0000    0.0000 C   0  0  0  0  0  0  0  0  0  0  0  0
    3.0608    0.0000    0.0000 C   0  0  0  0  0  0  0  0  0  0  0  0
    3.7163    0.0000    0.0000 C   0  0  0  0  0  0  0  0  0  0  0  0
    3.5712    0.0000    0.0000 C   0  0  0  0  0  0  0  0  0  0  0  0
    3.3698    0.0000    0.0000 O   0  0  0  0  0  0  0  0  0  0  0  0
    2.8077    0.0000    0.0000 C   0  0  0  0  0  0  0  0  0  0  0  0
    2.1728    0.0000    0.0000 C   0  0  0  0  0  0  0  0  0  0  0  0
    4.4671    0.0000    0.0000 C   0  0  0  0  0  0  0  0  0  0  0  0
    5.0033    0.0000    0.0000 C   0  0  0  0  0  0  0  0  0  0  0  0
    4.7407    0.0000    0.0000 O   0  0  0  0  0  0  0  0  0  0  0  0
    5.2782    0.0000    0.0000 C   0  0  0  0  0  0  0  0  0  0  0  0
    4.7912    0.0000    0.0000 O   0  0  0  0  0  0  0  0  0  0  0  0
    5.1116    0.0000    0.0000 C   0  0  0  0  0  0  0  0  0  0  0  0
    4.6246    0.0000    0.0000 C   0  0  0  0  0  0  0  0  0  0  0  0
    4.9450    0.0000    0.0000 O   0  0  0  0  0  0  0  0  0  0  0  0
    5.9191    0.0000    0.0000 C   0  0  0  0  0  0  0  0  0  0  0  0
    6.2396    0.0000    0.0000 O   0  0  0  0  0  0  0  0  0  0  0  0
    6.4062    0.0000    0.0000 C   0  0  0  0  0  0  0  0  0  0  0  0
    7.2137    0.0000    0.0000 O   0  0  0  0  0  0  0  0  0  0  0  0
    6.0857    0.0000    0.0000 C   0  0  0  0  0  0  0  0  0  0  0  0
    6.9271    0.0000    0.0000 O   0  0  0  0  0  0  0  0  0  0  0  0
    5.8009    0.0000    0.0000 C   0  0  0  0  0  0  0  0  0  0  0  0
    6.0623    0.0000    0.0000 C   0  0  0  0  0  0  0  0  0  0  0  0
    6.9079    0.0000    0.0000 O   0  0  0  0  0  0  0  0  0  0  0  0
    5.5260    0.0000    0.0000 C   0  0  0  0  0  0  0  0  0  0  0  0
    4.7284    0.0000    0.0000 C   0  0  0  0  0  0  0  0  0  0  0  0
    4.2919    0.0000    0.0000 C   0  0  0  0  0  0  0  0  0  0  0  0
    4.1834    0.0000    0.0000 N   0  0  0  0  0  0  0  0  0  0  0  0
    3.5134    0.0000    0.0000 C   0  0  0  0  0  0  0  0  0  0  0  0
    4.2093    0.0000    0.0000 O   0  0  0  0  0  0  0  0  0  0  0  0
    5.1851    0.0000    0.0000 C   0  0  0  0  0  0  0  0  0  0  0  0
    5.7832    0.0000    0.0000 O   0  0  0  0  0  0  0  0  0  0  0  0
    6.2195    0.0000    0.0000 O   0  0  0  0  0  0  0  0  0  0  0  0
   -0.1094    0.0000    0.0000 C   0  0  0  0  0  0  0  0  0  0  0  0
   -6.6760    0.0000    0.0000 C   0  0  0  0  0  0  0  0  0  0  0  0
   -7.1380    0.0000    0.0000 O   0  0  0  0  0  0  0  0  0  0  0  0
   -7.2137    0.0000    0.0000 C   0  0  0  0  0  0  0  0  0  0  0  0
   -6.9438    0.0000    0.0000 C   0  0  0  0  0  0  0  0  0  0  0  0
   -2.2369    0.0000    0.0000 C   0  0  0  0  0  0  0  0  0  0  0  0
   -1.4255    0.0000    0.0000 C   0  0  0  0  0  0  0  0  0  0  0  0
  1  2  1  0      
  2  3  1  0      
  3  4  1  0      
  4  5  1  0      
  5  6  1  0      
  6  7  1  0      
  7  8  1  0      
  8  9  1  0      
  9 10  1  0      
 10 11  2  0      
 10 12  1  0      
 12 13  1  0      
 13 14  1  0      
 14 15  1  0      
 14 16  1  0      
 16 17  1  0      
 16 18  1  0      
 18 19  1  0      
 19 20  1  0      
 18 21  1  0      
 21 22  1  0      
 13 22  1  0      
 22 23  1  0      
 23 24  1  0      
 24 25  2  0      
 25 26  1  0      
 26 27  1  0      
 27 28  2  0      
 28 29  1  0      
 28 30  1  0      
 30 31  2  0      
 31 32  1  0      
 32 33  1  0      
 33 34  1  0      
 34 35  1  0      
 35 36  2  0      
 35 37  1  0      
 37 38  1  0      
 37 39  1  0      
 39 40  2  0      
 40 41  1  0      
 41 42  1  0      
 42 43  1  0      
 43 44  2  0      
 44 45  1  0      
 45 46  1  0      
 45 47  2  0      
 47 48  1  0      
 48 49  2  0      
 43 49  1  0      
 48 50  1  0      
 50 51  1  0      
 51 52  1  0      
 33 52  1  0      
 52 53  2  0      
 50 54  1  0      
 54 55  2  0      
 54 56  1  0      
 56 57  1  0      
 57 58  1  0      
 58 59  1  0      
 59 60  2  0      
 24 60  1  0      
 60 61  1  0      
 61 62  1  0      
 62 63  2  0      
 63 64  1  0      
 63 65  1  0      
 65 66  2  0      
 66 67  1  0      
 67 68  2  0      
 62 68  1  0      
 66 69  1  0      
 69 70  1  0      
 70 71  1  0      
 71 72  1  0      
 72 73  1  0      
 73 74  1  0      
 74 75  1  0      
 73 76  1  0      
 76 77  1  0      
 76 78  1  0      
 78 79  1  0      
 78 80  1  0      
 71 80  1  0      
 80 81  1  0      
 81 82  1  0      
 82 83  1  0      
 82 84  2  0      
 69 85  1  0      
 85 86  1  0      
 86 87  1  0      
 87 88  2  0      
 87 89  1  0      
 89 90  1  0      
 90 91  1  0      
 57 91  1  0      
 91 92  2  0      
 89 93  1  0      
 93 94  2  0      
 94 95  1  0      
 95 96  2  0      
 96 97  1  0      
 96 98  1  0      
 98 99  2  0      
 93 99  1  0      
 95100  1  0      
100101  2  0      
101102  1  0      
102103  1  0      
103104  1  0      
104105  1  0      
105106  1  0      
106107  1  0      
105108  1  0      
108109  1  0      
108110  1  0      
110111  1  0      
110112  1  0      
103112  1  0      
112113  1  0      
101114  1  0      
114115  2  0      
115116  1  0      
115117  1  0      
117118  2  0      
100118  1  0      
118119  1  0      
119120  1  0      
120121  1  0      
 85121  1  0      
121122  2  0      
119123  1  0      
123124  1  0      
123125  2  0      
 58126  2  0      
 25126  1  0      
 41127  2  0      
127128  1  0      
127129  1  0      
129130  2  0      
 39130  1  0      
 31131  1  0      
131132  2  0      
 27132  1  0      
M  END
>  <Bioactivity>
Teicoplanin is a semisynthetic glycopeptide antibiotic used in the prophylaxis and treatment of serious infections caused by Gram-positive bacteria, including Methicillin-resistant Staphylococcus aure
us and Enterococcus faecalis.

>  <CAS>
61036-62-2

>  <Col>
5

>  <Formula>
C77H77N5O31CI2R

>  <ID>
T0967

>  <Index>
604

>  <MOLENAME>
Teicoplanin

>  <MolWt>
1709.39

>  <Pathways>
Microbiology & Virology

>  <Plate>
PLATE 008

>  <QR code>
1151480462

>  <Receptor>
Others

>  <Reference>
1. Bereczki I, et al. Bioorg Med Chem Lett. 2014 Aug 1;24(15):3251-4. 

>  <Row>
E

>  <SMILES>
CCCCCCCCCC(=O)NC1C(O)C(O)C(CO)OC1OC1=C2OC3=C(Cl)C=C(CC4NC(=O)C(N)C5=CC(OC6=CC(O)=CC(=C6)C(NC4=O)C(=O)NC4C(C=C1OC1=C(Cl)C=C(C=C1)C(OC1OC(CO)C(O)C(O)C1NC(C)=O)C1NC(=O)C(NC4=O)C4=CC(=C(O)C=C4)C4=C(OC6OC(
CO)C(O)C(O)C6O)C=C(O)C=C4C(NC1=O)C(O)=O)=C2)=C(O)C=C5)C=C3

>  <Target>
Antibacterial

>  <Weight>
10.2mg

$$$$
Lab-1.sdf
  ChemDraw05232018482D

 16 18  0  0  0  0  0  0  0  0999 V2000
    2.7060    0.0000    0.0000 C   0  0  0  0  0  0  0  0  0  0  0  0
    2.1540    0.0000    0.0000 O   0  0  0  0  0  0  0  0  0  0  0  0
    1.3470    0.0000    0.0000 C   0  0  0  0  0  0  0  0  0  0  0  0
    0.7950    0.0000    0.0000 C   0  0  0  0  0  0  0  0  0  0  0  0
   -0.0120    0.0000    0.0000 C   0  0  0  0  0  0  0  0  0  0  0  0
   -0.2671    0.0000    0.0000 C   0  0  0  0  0  0  0  0  0  0  0  0
    0.2851    0.0000    0.0000 C   0  0  0  0  0  0  0  0  0  0  0  0
    1.0920    0.0000    0.0000 C   0  0  0  0  0  0  0  0  0  0  0  0
   -1.0921    0.0000    0.0000 C   0  0  0  0  0  0  0  0  0  0  0  0
   -1.3470    0.0000    0.0000 C   0  0  0  0  0  0  0  0  0  0  0  0
   -0.6796    0.0000    0.0000 N   0  0  0  0  0  0  0  0  0  0  0  0
   -2.1540    0.0000    0.0000 C   0  0  0  0  0  0  0  0  0  0  0  0
   -2.4089    0.0000    0.0000 C   0  0  0  0  0  0  0  0  0  0  0  0
   -2.7060    0.0000    0.0000 N   0  0  0  0  0  0  0  0  0  0  0  0
   -2.4511    0.0000    0.0000 C   0  0  0  0  0  0  0  0  0  0  0  0
   -1.6441    0.0000    0.0000 C   0  0  0  0  0  0  0  0  0  0  0  0
  1  2  1  0      
  2  3  1  0      
  3  4  2  0      
  4  5  1  0      
  5  6  2  0      
  6  7  1  0      
  7  8  2  0      
  3  8  1  0      
  6  9  1  0      
  9 10  2  0      
 10 11  1  0      
  5 11  1  0      
 10 12  1  0      
 12 13  1  0      
 12 14  2  0      
 14 15  1  0      
 15 16  2  0      
  9 16  1  0      
M  END
>  <Bioactivity>
Banisterine monohydrate£¨Harmine£©, a tricyclic b-carboline alkaloid that was originally isolated from seeds of Peganum harmala, has been reported to possess anxiolytic, behavioral effects.

>  <CAS>
442-51-3

>  <Col>
6

>  <Formula>
C13H12N2O

>  <ID>
T1711

>  <Index>
605

>  <MOLENAME>
Harmine

>  <MolWt>
212.25

>  <Pathways>
Enzyme

>  <Plate>
PLATE 008

>  <QR code>
1151480461

>  <Receptor>
MAO

>  <Reference>
1. Zhang H, et al. Phytomedicine. 2014 Feb 15;21(3):348-55. 

>  <Row>
E

>  <SMILES>
COC1=CC2=C(C=C1)C1=C(N2)C(C)=NC=C1

>  <Target>
MAO inhibitor

>  <Weight>
10.3mg

$$$$
Lab-1.sdf
  ChemDraw05232018482D

 30 33  0  0  0  0  0  0  0  0999 V2000
   -3.7114    0.0000    0.0000 O   0  0  0  0  0  0  0  0  0  0  0  0
   -3.7114    0.0000    0.0000 S   0  0  0  0  0  0  0  0  0  0  0  0
   -3.7114    0.0000    0.0000 O   0  0  0  0  0  0  0  0  0  0  0  0
   -2.8864    0.0000    0.0000 O   0  0  0  0  0  0  0  0  0  0  0  0
   -4.5363    0.0000    0.0000 O   0  0  0  0  0  0  0  0  0  0  0  0
    0.2874    0.0000    0.0000 C   0  0  0  0  0  0  0  0  0  0  0  0
   -0.4307    0.0000    0.0000 C   0  0  0  0  0  0  0  0  0  0  0  0
   -0.4382    0.0000    0.0000 C   0  0  0  0  0  0  0  0  0  0  0  0
   -1.0007    0.0000    0.0000 C   0  0  0  0  0  0  0  0  0  0  0  0
   -0.4036    0.0000    0.0000 C   0  0  0  0  0  0  0  0  0  0  0  0
   -0.4949    0.0000    0.0000 C   0  0  0  0  0  0  0  0  0  0  0  0
    0.2273    0.0000    0.0000 N   0  0  0  0  0  0  0  0  0  0  0  0
    0.9234    0.0000    0.0000 C   0  0  0  0  0  0  0  0  0  0  0  0
    1.7619    0.0000    0.0000 C   0  0  0  0  0  0  0  0  0  0  0  0
    2.1243    0.0000    0.0000 C   0  0  0  0  0  0  0  0  0  0  0  0
    1.8199    0.0000    0.0000 C   0  0  0  0  0  0  0  0  0  0  0  0
    2.4551    0.0000    0.0000 N   0  0  0  0  0  0  0  0  0  0  0  0
    3.1521    0.0000    0.0000 C   0  0  0  0  0  0  0  0  0  0  0  0
    3.9464    0.0000    0.0000 C   0  0  0  0  0  0  0  0  0  0  0  0
    4.5363    0.0000    0.0000 C   0  0  0  0  0  0  0  0  0  0  0  0
    4.3319    0.0000    0.0000 C   0  0  0  0  0  0  0  0  0  0  0  0
    3.5376    0.0000    0.0000 C   0  0  0  0  0  0  0  0  0  0  0  0
    2.9476    0.0000    0.0000 C   0  0  0  0  0  0  0  0  0  0  0  0
    0.9645    0.0000    0.0000 C   0  0  0  0  0  0  0  0  0  0  0  0
    0.5114    0.0000    0.0000 C   0  0  0  0  0  0  0  0  0  0  0  0
    0.1305    0.0000    0.0000 C   0  0  0  0  0  0  0  0  0  0  0  0
    0.9108    0.0000    0.0000 C   0  0  0  0  0  0  0  0  0  0  0  0
    0.1709    0.0000    0.0000 O   0  0  0  0  0  0  0  0  0  0  0  0
    1.5969    0.0000    0.0000 O   0  0  0  0  0  0  0  0  0  0  0  0
    1.5431    0.0000    0.0000 C   0  0  0  0  0  0  0  0  0  0  0  0
  1  2  1  0      
  2  3  1  0      
  2  4  2  0      
  2  5  2  0      
  6  7  1  0      
  7  8  1  0      
  8  9  2  0      
  9 10  1  0      
 10 11  1  0      
 11 12  1  0      
 12 13  1  0      
 13 14  1  0      
 14 15  1  0      
 15 16  2  0      
 16 17  1  0      
 17 18  1  0      
 18 19  2  0      
 19 20  1  0      
 20 21  2  0      
 21 22  1  0      
 22 23  2  0      
 15 23  1  0      
 18 23  1  0      
 16 24  1  0      
 24 25  1  0      
 10 25  1  0      
 24 26  1  0      
  8 26  1  0      
 12 26  1  0      
 24 27  1  0      
 27 28  2  0      
 27 29  1  0      
 29 30  1  0      
M  END
>  <Bioactivity>
Catharanthine inhibits nicotinic receptor mediated diaphragm contractions.

>  <CAS>
70674-90-7

>  <Col>
7

>  <Formula>
C21H26N2O6S

>  <ID>
T3023

>  <Index>
606

>  <MOLENAME>
Catharanthine sulfate

>  <MolWt>
434.51

>  <Pathways>
Neuroscience

>  <Plate>
PLATE 008

>  <QR code>
1151480460

>  <Receptor>
Nicotinic AChR

>  <Reference>
1. Pereira DM, et al. Phytomedicine, 2010, 17(8-9), 646-652.

>  <Row>
E

>  <SMILES>
OS(O)(=O)=O.CCC1=CC2CN3CCC4=C(NC5=CC=CC=C45)C(C2)(C13)C(=O)OC

>  <Target>
AChR antagonist

>  <Weight>
10.1mg

$$$$
Lab-1.sdf
  ChemDraw05232018482D

 18 18  0  0  0  0  0  0  0  0999 V2000
   -1.7862    0.0000    0.0000 C   0  0  0  0  0  0  0  0  0  0  0  0
   -1.7862    0.0000    0.0000 N   0  0  0  0  0  0  0  0  0  0  0  0
   -2.5006    0.0000    0.0000 N   0  0  0  0  0  0  0  0  0  0  0  0
   -3.2151    0.0000    0.0000 O   0  0  0  0  0  0  0  0  0  0  0  0
   -1.0717    0.0000    0.0000 C   0  0  0  0  0  0  0  0  0  0  0  0
   -1.0717    0.0000    0.0000 O   0  0  0  0  0  0  0  0  0  0  0  0
   -0.3572    0.0000    0.0000 N   0  0  0  0  0  0  0  0  0  0  0  0
    0.3573    0.0000    0.0000 C   0  0  0  0  0  0  0  0  0  0  0  0
    1.0717    0.0000    0.0000 C   0  0  0  0  0  0  0  0  0  0  0  0
    1.0717    0.0000    0.0000 O   0  0  0  0  0  0  0  0  0  0  0  0
    1.7862    0.0000    0.0000 O   0  0  0  0  0  0  0  0  0  0  0  0
    1.7862    0.0000    0.0000 C   0  0  0  0  0  0  0  0  0  0  0  0
    2.5007    0.0000    0.0000 C   0  0  0  0  0  0  0  0  0  0  0  0
    3.2151    0.0000    0.0000 O   0  0  0  0  0  0  0  0  0  0  0  0
    1.0717    0.0000    0.0000 C   0  0  0  0  0  0  0  0  0  0  0  0
    1.0717    0.0000    0.0000 O   0  0  0  0  0  0  0  0  0  0  0  0
    0.3573    0.0000    0.0000 C   0  0  0  0  0  0  0  0  0  0  0  0
   -0.3572    0.0000    0.0000 O   0  0  0  0  0  0  0  0  0  0  0  0
  1  2  1  0      
  2  3  1  0      
  3  4  2  0      
  2  5  1  0      
  5  6  2  0      
  5  7  1  0      
  7  8  1  0      
  8  9  1  0      
  9 10  1  0      
  9 11  1  0      
 11 12  1  0      
 12 13  1  0      
 13 14  1  0      
 12 15  1  0      
 15 16  1  0      
 15 17  1  0      
  8 17  1  0      
 17 18  1  0      
M  END
>  <Bioactivity>
Streptozotocin is a DNA alkylating agent that enters cells exclusively via the GLUT2 glucose transport protein.

>  <CAS>
18883-66-4

>  <Col>
8

>  <Formula>
C8H15N3O7

>  <ID>
T1507

>  <Index>
607

>  <MOLENAME>
Streptozocin

>  <MolWt>
265.22

>  <Pathways>
DNA Damage/DNA Repair; Microbiology & Virology

>  <Plate>
PLATE 008

>  <QR code>
1151480459

>  <Receptor>
DNA alkylation

>  <Reference>
1. Arison RN, et al. Diabetes, 1967, 16(1), 51-56.

>  <Row>
E

>  <SMILES>
CN(N=O)C(=O)NC1C(O)OC(CO)C(O)C1O

>  <Target>
Antibiotic; DNA alkylation

>  <Weight>
10.3mg

$$$$
Lab-1.sdf
  ChemDraw05232018482D

 56 59  0  0  0  0  0  0  0  0999 V2000
    3.2184    0.0000    0.0000 C   0  0  0  0  0  0  0  0  0  0  0  0
    3.3598    0.0000    0.0000 C   0  0  0  0  0  0  0  0  0  0  0  0
    2.7268    0.0000    0.0000 C   0  0  0  0  0  0  0  0  0  0  0  0
    2.9009    0.0000    0.0000 C   0  0  0  0  0  0  0  0  0  0  0  0
    3.5386    0.0000    0.0000 C   0  0  0  0  0  0  0  0  0  0  0  0
    4.3369    0.0000    0.0000 C   0  0  0  0  0  0  0  0  0  0  0  0
    3.2381    0.0000    0.0000 C   0  0  0  0  0  0  0  0  0  0  0  0
    2.4146    0.0000    0.0000 C   0  0  0  0  0  0  0  0  0  0  0  0
    2.1818    0.0000    0.0000 C   0  0  0  0  0  0  0  0  0  0  0  0
    1.6855    0.0000    0.0000 C   0  0  0  0  0  0  0  0  0  0  0  0
    0.9172    0.0000    0.0000 C   0  0  0  0  0  0  0  0  0  0  0  0
    1.0410    0.0000    0.0000 O   0  0  0  0  0  0  0  0  0  0  0  0
    1.6788    0.0000    0.0000 C   0  0  0  0  0  0  0  0  0  0  0  0
    0.2728    0.0000    0.0000 C   0  0  0  0  0  0  0  0  0  0  0  0
   -0.4955    0.0000    0.0000 O   0  0  0  0  0  0  0  0  0  0  0  0
   -1.1400    0.0000    0.0000 C   0  0  0  0  0  0  0  0  0  0  0  0
   -1.7845    0.0000    0.0000 O   0  0  0  0  0  0  0  0  0  0  0  0
   -1.0162    0.0000    0.0000 C   0  0  0  0  0  0  0  0  0  0  0  0
   -1.6606    0.0000    0.0000 C   0  0  0  0  0  0  0  0  0  0  0  0
   -0.2479    0.0000    0.0000 C   0  0  0  0  0  0  0  0  0  0  0  0
    0.3966    0.0000    0.0000 C   0  0  0  0  0  0  0  0  0  0  0  0
    1.1649    0.0000    0.0000 O   0  0  0  0  0  0  0  0  0  0  0  0
    1.2887    0.0000    0.0000 C   0  0  0  0  0  0  0  0  0  0  0  0
   -1.9083    0.0000    0.0000 C   0  0  0  0  0  0  0  0  0  0  0  0
   -2.5528    0.0000    0.0000 O   0  0  0  0  0  0  0  0  0  0  0  0
   -2.0321    0.0000    0.0000 C   0  0  0  0  0  0  0  0  0  0  0  0
   -1.3876    0.0000    0.0000 O   0  0  0  0  0  0  0  0  0  0  0  0
   -2.8004    0.0000    0.0000 N   0  0  0  0  0  0  0  0  0  0  0  0
   -3.4448    0.0000    0.0000 C   0  0  0  0  0  0  0  0  0  0  0  0
   -4.2131    0.0000    0.0000 C   0  0  0  0  0  0  0  0  0  0  0  0
   -4.3369    0.0000    0.0000 C   0  0  0  0  0  0  0  0  0  0  0  0
   -3.6924    0.0000    0.0000 C   0  0  0  0  0  0  0  0  0  0  0  0
   -2.9242    0.0000    0.0000 C   0  0  0  0  0  0  0  0  0  0  0  0
   -2.2798    0.0000    0.0000 C   0  0  0  0  0  0  0  0  0  0  0  0
   -2.4036    0.0000    0.0000 O   0  0  0  0  0  0  0  0  0  0  0  0
   -1.5115    0.0000    0.0000 O   0  0  0  0  0  0  0  0  0  0  0  0
   -0.8670    0.0000    0.0000 C   0  0  0  0  0  0  0  0  0  0  0  0
   -0.0987    0.0000    0.0000 C   0  0  0  0  0  0  0  0  0  0  0  0
    0.0251    0.0000    0.0000 C   0  0  0  0  0  0  0  0  0  0  0  0
    0.5458    0.0000    0.0000 C   0  0  0  0  0  0  0  0  0  0  0  0
    0.4219    0.0000    0.0000 O   0  0  0  0  0  0  0  0  0  0  0  0
    1.3140    0.0000    0.0000 C   0  0  0  0  0  0  0  0  0  0  0  0
    1.9585    0.0000    0.0000 C   0  0  0  0  0  0  0  0  0  0  0  0
    1.8347    0.0000    0.0000 O   0  0  0  0  0  0  0  0  0  0  0  0
   -0.9908    0.0000    0.0000 C   0  0  0  0  0  0  0  0  0  0  0  0
   -0.3464    0.0000    0.0000 C   0  0  0  0  0  0  0  0  0  0  0  0
   -1.7591    0.0000    0.0000 C   0  0  0  0  0  0  0  0  0  0  0  0
   -1.8829    0.0000    0.0000 C   0  0  0  0  0  0  0  0  0  0  0  0
   -2.6512    0.0000    0.0000 C   0  0  0  0  0  0  0  0  0  0  0  0
   -2.7751    0.0000    0.0000 C   0  0  0  0  0  0  0  0  0  0  0  0
   -2.1306    0.0000    0.0000 C   0  0  0  0  0  0  0  0  0  0  0  0
   -2.2544    0.0000    0.0000 O   0  0  0  0  0  0  0  0  0  0  0  0
   -1.3623    0.0000    0.0000 C   0  0  0  0  0  0  0  0  0  0  0  0
   -1.2385    0.0000    0.0000 C   0  0  0  0  0  0  0  0  0  0  0  0
   -0.7178    0.0000    0.0000 O   0  0  0  0  0  0  0  0  0  0  0  0
    0.0505    0.0000    0.0000 C   0  0  0  0  0  0  0  0  0  0  0  0
  1  2  1  0      
  2  3  1  0      
  4  3  1  4      
  4  5  2  0      
  5  6  1  0      
  5  7  1  0      
  7  8  1  0      
  8  9  1  0      
  8 10  1  0      
 10 11  1  0      
 11 12  1  0      
 12 13  1  0      
 11 14  1  0      
 14 15  1  0      
 15 16  1  0      
 16 17  1  0      
 16 18  1  0      
 18 19  1  0      
 18 20  1  0      
 20 21  1  0      
 14 21  1  0      
 21 22  1  0      
 22 23  1  0      
 16 24  1  0      
 24 25  2  0      
 24 26  1  0      
 26 27  2  0      
 26 28  1  0      
 28 29  1  0      
 29 30  1  0      
 30 31  1  0      
 31 32  1  0      
 32 33  1  0      
 28 33  1  0      
 33 34  1  0      
 34 35  2  0      
 34 36  1  0      
 36 37  1  0      
 37 38  1  0      
 38 39  1  0      
 38 40  1  0      
 40 41  1  0      
 40 42  1  0      
 42 43  1  0      
  3 43  1  0      
 43 44  2  0      
 37 45  1  0      
 45 46  1  0      
 45 47  2  0      
 47 48  1  4      
 48 49  1  0      
 49 50  1  0      
 50 51  1  0      
 51 52  1  0      
 51 53  1  0      
 53 54  1  0      
 48 54  1  0      
 53 55  1  0      
 55 56  1  0      
M  END
>  <Bioactivity>
Ascomycin (FK520), an FK-506 analog, is a neutral macrolide immunosuppressant, which prevents rejection after an organ transplant. Phase 3.

>  <CAS>
104987-12-4

>  <Col>
9

>  <Formula>
C43H69NO12

>  <ID>
T2481

>  <Index>
608

>  <MOLENAME>
Ascomycin (FK520)

>  <MolWt>
792.01

>  <Pathways>
Others

>  <Plate>
PLATE 008

>  <QR code>
1151480458

>  <Receptor>
Others

>  <Reference>
1. Hatanaka H, et al. J Antibiot (Tokyo). 1988, 41(11), 1592-1601.

>  <Row>
E

>  <SMILES>
CCC1C=C(C)CC(C)CC(OC)C2OC(O)(C(C)CC2OC)C(=O)C(=O)N2CCCCC2C(=O)OC(C(C)C(O)CC1=O)C(C)=CC1CCC(O)C(C1)OC

>  <Target>
Others

>  <Weight>
10.2mg

$$$$
Lab-1.sdf
  ChemDraw05232018482D

 35 36  0  0  0  0  0  0  0  0999 V2000
   -0.0405    0.0000    0.0000 C   0  0  0  0  0  0  0  0  0  0  0  0
    0.6739    0.0000    0.0000 C   0  0  0  0  0  0  0  0  0  0  0  0
    1.3884    0.0000    0.0000 C   0  0  0  0  0  0  0  0  0  0  0  0
    0.6739    0.0000    0.0000 C   0  0  0  0  0  0  0  0  0  0  0  0
    1.3884    0.0000    0.0000 C   0  0  0  0  0  0  0  0  0  0  0  0
    1.3884    0.0000    0.0000 C   0  0  0  0  0  0  0  0  0  0  0  0
    2.1029    0.0000    0.0000 C   0  0  0  0  0  0  0  0  0  0  0  0
    2.1029    0.0000    0.0000 C   0  0  0  0  0  0  0  0  0  0  0  0
    2.8174    0.0000    0.0000 C   0  0  0  0  0  0  0  0  0  0  0  0
    0.6739    0.0000    0.0000 C   0  0  0  0  0  0  0  0  0  0  0  0
    0.6739    0.0000    0.0000 C   0  0  0  0  0  0  0  0  0  0  0  0
   -0.0405    0.0000    0.0000 C   0  0  0  0  0  0  0  0  0  0  0  0
   -0.7550    0.0000    0.0000 O   0  0  0  0  0  0  0  0  0  0  0  0
   -0.0405    0.0000    0.0000 N   0  0  0  0  0  0  0  0  0  0  0  0
   -0.7550    0.0000    0.0000 S   0  0  0  0  0  0  0  0  0  0  0  0
   -1.1675    0.0000    0.0000 O   0  0  0  0  0  0  0  0  0  0  0  0
   -1.4695    0.0000    0.0000 O   0  0  0  0  0  0  0  0  0  0  0  0
   -0.3425    0.0000    0.0000 O   0  0  0  0  0  0  0  0  0  0  0  0
   -0.7550    0.0000    0.0000 C   0  0  0  0  0  0  0  0  0  0  0  0
   -0.3425    0.0000    0.0000 C   0  0  0  0  0  0  0  0  0  0  0  0
   -0.7550    0.0000    0.0000 C   0  0  0  0  0  0  0  0  0  0  0  0
   -1.5800    0.0000    0.0000 C   0  0  0  0  0  0  0  0  0  0  0  0
   -1.9925    0.0000    0.0000 C   0  0  0  0  0  0  0  0  0  0  0  0
   -1.5800    0.0000    0.0000 C   0  0  0  0  0  0  0  0  0  0  0  0
   -1.9925    0.0000    0.0000 C   0  0  0  0  0  0  0  0  0  0  0  0
   -1.5800    0.0000    0.0000 C   0  0  0  0  0  0  0  0  0  0  0  0
   -2.8174    0.0000    0.0000 C   0  0  0  0  0  0  0  0  0  0  0  0
    0.4825    0.0000    0.0000 C   0  0  0  0  0  0  0  0  0  0  0  0
    0.8950    0.0000    0.0000 C   0  0  0  0  0  0  0  0  0  0  0  0
    0.8950    0.0000    0.0000 C   0  0  0  0  0  0  0  0  0  0  0  0
   -0.0405    0.0000    0.0000 C   0  0  0  0  0  0  0  0  0  0  0  0
   -0.0405    0.0000    0.0000 C   0  0  0  0  0  0  0  0  0  0  0  0
   -0.7550    0.0000    0.0000 C   0  0  0  0  0  0  0  0  0  0  0  0
   -1.4695    0.0000    0.0000 C   0  0  0  0  0  0  0  0  0  0  0  0
   -1.2398    0.0000    0.0000 C   0  0  0  0  0  0  0  0  0  0  0  0
  1  2  1  0      
  2  3  1  0      
  2  4  1  0      
  4  5  2  0      
  5  6  1  0      
  6  7  1  0      
  7  8  1  0      
  7  9  1  0      
  6 10  2  0      
 10 11  1  0      
 11 12  1  0      
 12 13  2  0      
 12 14  1  0      
 14 15  1  0      
 15 16  2  0      
 15 17  2  0      
 15 18  1  0      
 18 19  1  0      
 19 20  2  0      
 20 21  1  0      
 21 22  2  0      
 22 23  1  0      
 23 24  2  0      
 19 24  1  0      
 24 25  1  0      
 25 26  1  0      
 25 27  1  0      
 20 28  1  0      
 28 29  1  0      
 28 30  1  0      
 10 31  1  0      
 31 32  2  0      
  4 32  1  0      
 31 33  1  0      
 33 34  1  0      
 33 35  1  0      
M  END
>  <Bioactivity>
Avasimibe inhibits ACAT with IC50 of 3.3 ¦ÌM, also inhibits human P450 isoenzymes CYP2C9, CYP1A2 and CYP2C19 with IC50 of 2.9 ¦ÌM, 13.9 ¦ÌM and 26.5 ¦ÌM, respectively.

>  <CAS>
166518-60-1

>  <Col>
10

>  <Formula>
C29H43NO4S

>  <ID>
T2753

>  <Index>
609

>  <MOLENAME>
Avasimibe

>  <MolWt>
501.72

>  <Pathways>
Metabolism

>  <Plate>
PLATE 008

>  <QR code>
1151480457

>  <Receptor>
CYP2C9; CYP1A2; CYP2C19

>  <Reference>
1. Lee HT, et al. J Med Chem, 1996, 39(26), 5031-5034.

>  <Row>
E

>  <SMILES>
CC(C)C1=CC(C(C)C)=C(CC(=O)NS(=O)(=O)OC2=C(C=CC=C2C(C)C)C(C)C)C(=C1)C(C)C

>  <Target>
CYP inhibitor

>  <Weight>
10.3mg

$$$$
Lab-1.sdf
  ChemDraw05232018482D

 31 33  0  0  0  0  0  0  0  0999 V2000
    4.5761    0.0000    0.0000 C   0  0  0  0  0  0  0  0  0  0  0  0
    3.7547    0.0000    0.0000 O   0  0  0  0  0  0  0  0  0  0  0  0
    3.0353    0.0000    0.0000 C   0  0  0  0  0  0  0  0  0  0  0  0
    3.3841    0.0000    0.0000 O   0  0  0  0  0  0  0  0  0  0  0  0
    2.1678    0.0000    0.0000 C   0  0  0  0  0  0  0  0  0  0  0  0
    1.9954    0.0000    0.0000 C   0  0  0  0  0  0  0  0  0  0  0  0
    1.2571    0.0000    0.0000 C   0  0  0  0  0  0  0  0  0  0  0  0
    0.5089    0.0000    0.0000 C   0  0  0  0  0  0  0  0  0  0  0  0
    0.8411    0.0000    0.0000 C   0  0  0  0  0  0  0  0  0  0  0  0
    0.4577    0.0000    0.0000 C   0  0  0  0  0  0  0  0  0  0  0  0
   -0.3523    0.0000    0.0000 C   0  0  0  0  0  0  0  0  0  0  0  0
    0.3142    0.0000    0.0000 C   0  0  0  0  0  0  0  0  0  0  0  0
    0.8196    0.0000    0.0000 C   0  0  0  0  0  0  0  0  0  0  0  0
    1.6445    0.0000    0.0000 C   0  0  0  0  0  0  0  0  0  0  0  0
   -0.4824    0.0000    0.0000 O   0  0  0  0  0  0  0  0  0  0  0  0
   -1.0613    0.0000    0.0000 C   0  0  0  0  0  0  0  0  0  0  0  0
   -1.3621    0.0000    0.0000 C   0  0  0  0  0  0  0  0  0  0  0  0
   -1.9081    0.0000    0.0000 O   0  0  0  0  0  0  0  0  0  0  0  0
   -0.9792    0.0000    0.0000 C   0  0  0  0  0  0  0  0  0  0  0  0
   -1.8611    0.0000    0.0000 C   0  0  0  0  0  0  0  0  0  0  0  0
   -0.9508    0.0000    0.0000 O   0  0  0  0  0  0  0  0  0  0  0  0
   -0.2885    0.0000    0.0000 C   0  0  0  0  0  0  0  0  0  0  0  0
    0.1600    0.0000    0.0000 O   0  0  0  0  0  0  0  0  0  0  0  0
   -1.3614    0.0000    0.0000 C   0  0  0  0  0  0  0  0  0  0  0  0
   -2.0948    0.0000    0.0000 C   0  0  0  0  0  0  0  0  0  0  0  0
   -2.3764    0.0000    0.0000 C   0  0  0  0  0  0  0  0  0  0  0  0
   -3.1639    0.0000    0.0000 C   0  0  0  0  0  0  0  0  0  0  0  0
   -3.2891    0.0000    0.0000 C   0  0  0  0  0  0  0  0  0  0  0  0
   -3.8072    0.0000    0.0000 C   0  0  0  0  0  0  0  0  0  0  0  0
   -3.6819    0.0000    0.0000 O   0  0  0  0  0  0  0  0  0  0  0  0
   -4.5761    0.0000    0.0000 O   0  0  0  0  0  0  0  0  0  0  0  0
  1  2  1  0      
  2  3  1  0      
  3  4  2  0      
  3  5  1  0      
  5  6  2  0      
  6  7  1  0      
  7  8  1  0      
  8  9  1  0      
  9 10  1  0      
 10 11  1  0      
 11 12  1  0      
  8 12  1  0      
 12 13  1  0      
 13 14  1  0      
  5 14  1  0      
 12 15  1  0      
 15 16  1  0      
 16 17  1  0      
 16 18  2  0      
 11 19  1  0      
 19 20  1  0      
 19 21  1  0      
 21 22  1  0      
  8 22  1  0      
 22 23  2  0      
 24 19  1  4      
 24 25  2  0      
 26 25  1  4      
 26 27  2  0      
 27 28  1  0      
 27 29  1  0      
 29 30  1  0      
 29 31  2  0      
M  END
>  <Bioactivity>
Extracted from Pseudolarix kaempferi Gord. dry root barks or barks near the root;Store the product in sealed, cool and dry condition

>  <CAS>
82508-31-4

>  <Col>
11

>  <Formula>
C23H28O8

>  <ID>
T1922

>  <Index>
610

>  <MOLENAME>
Pseudolaric Acid B

>  <MolWt>
432.18

>  <Pathways>
MAPK Signaling

>  <Plate>
PLATE 008

>  <QR code>
1151480456

>  <Receptor>
p38

>  <Reference>
1. Li T, et al. Life Sci. 2015 Jan 15;121:88-96. 

>  <Row>
E

>  <SMILES>
COC(=O)C1=CCC23CCC(C2(CC1)OC(C)=O)C(C)(OC3=O)C=CC=C(C)C(O)=O

>  <Target>
p38 MAPK inhibitor

>  <Weight>
10.2mg

$$$$
Lab-1.sdf
  ChemDraw05232018482D

 20 21  0  0  0  0  0  0  0  0999 V2000
    2.8557    0.0000    0.0000 C   0  0  0  0  0  0  0  0  0  0  0  0
    2.1136    0.0000    0.0000 C   0  0  0  0  0  0  0  0  0  0  0  0
    2.0549    0.0000    0.0000 C   0  0  0  0  0  0  0  0  0  0  0  0
    1.2608    0.0000    0.0000 C   0  0  0  0  0  0  0  0  0  0  0  0
    0.9506    0.0000    0.0000 C   0  0  0  0  0  0  0  0  0  0  0  0
    0.1276    0.0000    0.0000 C   0  0  0  0  0  0  0  0  0  0  0  0
   -0.0708    0.0000    0.0000 C   0  0  0  0  0  0  0  0  0  0  0  0
   -0.7958    0.0000    0.0000 C   0  0  0  0  0  0  0  0  0  0  0  0
   -1.5966    0.0000    0.0000 C   0  0  0  0  0  0  0  0  0  0  0  0
   -2.0328    0.0000    0.0000 C   0  0  0  0  0  0  0  0  0  0  0  0
   -2.8557    0.0000    0.0000 O   0  0  0  0  0  0  0  0  0  0  0  0
   -1.5015    0.0000    0.0000 C   0  0  0  0  0  0  0  0  0  0  0  0
   -0.7371    0.0000    0.0000 C   0  0  0  0  0  0  0  0  0  0  0  0
    0.0050    0.0000    0.0000 C   0  0  0  0  0  0  0  0  0  0  0  0
    0.6883    0.0000    0.0000 O   0  0  0  0  0  0  0  0  0  0  0  0
    0.0637    0.0000    0.0000 C   0  0  0  0  0  0  0  0  0  0  0  0
    0.8059    0.0000    0.0000 C   0  0  0  0  0  0  0  0  0  0  0  0
    1.4891    0.0000    0.0000 C   0  0  0  0  0  0  0  0  0  0  0  0
    2.2312    0.0000    0.0000 O   0  0  0  0  0  0  0  0  0  0  0  0
    1.4304    0.0000    0.0000 O   0  0  0  0  0  0  0  0  0  0  0  0
  1  2  1  0      
  2  3  1  0      
  3  4  1  0      
  4  5  1  0      
  6  5  1  4      
  6  7  2  0      
  7  8  1  0      
  8  9  1  0      
  9 10  1  0      
 10 11  1  0      
 10 12  1  0      
 12 13  1  0      
  8 13  1  0      
 13 14  1  0      
 14 15  1  0      
 16 14  1  4      
 16 17  2  0      
 17 18  1  0      
 18 19  2  0      
 18 20  1  0      
  2 20  1  0      
M  END
>  <Bioactivity>
Brefeldin A is a lactone antibiotic and ATPase inhibitor for protein transport with IC50 of 0.2 ¦ÌM in HCT 116 cells, induces Y cell differentiation and apoptosis.

>  <CAS>
20350-15-6

>  <Col>
2

>  <Formula>
C16H24O4

>  <ID>
T6062

>  <Index>
611

>  <MOLENAME>
Brefeldin A

>  <MolWt>
280.36

>  <Pathways>
Membrane Transporter/Ion Channel

>  <Plate>
PLATE 008

>  <QR code>
1151480444

>  <Receptor>
ATPase (HCT 116)

>  <Reference>
1. Zhu JW, et al. Bioorg Med Chem. 2000, 8(2), 455-463.

>  <Row>
F

>  <SMILES>
CC1CCCC=CC2CC(O)CC2C(O)C=CC(=O)O1

>  <Target>
ATPase inhibitor

>  <Weight>
10.2mg

$$$$
Lab-1.sdf
  ChemDraw05232018482D

 40 44  0  0  0  0  0  0  0  0999 V2000
    2.0737    0.0000    0.0000 C   0  0  0  0  0  0  0  0  0  0  0  0
    1.1770    0.0000    0.0000 C   0  0  0  0  0  0  0  0  0  0  0  0
    0.6921    0.0000    0.0000 C   0  0  0  0  0  0  0  0  0  0  0  0
   -0.0925    0.0000    0.0000 C   0  0  0  0  0  0  0  0  0  0  0  0
    0.1868    0.0000    0.0000 O   0  0  0  0  0  0  0  0  0  0  0  0
    0.7753    0.0000    0.0000 C   0  0  0  0  0  0  0  0  0  0  0  0
    0.8155    0.0000    0.0000 C   0  0  0  0  0  0  0  0  0  0  0  0
    1.6365    0.0000    0.0000 O   0  0  0  0  0  0  0  0  0  0  0  0
   -0.0925    0.0000    0.0000 C   0  0  0  0  0  0  0  0  0  0  0  0
    0.6921    0.0000    0.0000 C   0  0  0  0  0  0  0  0  0  0  0  0
    1.1836    0.0000    0.0000 O   0  0  0  0  0  0  0  0  0  0  0  0
    1.9954    0.0000    0.0000 C   0  0  0  0  0  0  0  0  0  0  0  0
    2.7211    0.0000    0.0000 O   0  0  0  0  0  0  0  0  0  0  0  0
    2.0456    0.0000    0.0000 C   0  0  0  0  0  0  0  0  0  0  0  0
    2.8158    0.0000    0.0000 C   0  0  0  0  0  0  0  0  0  0  0  0
    2.9995    0.0000    0.0000 C   0  0  0  0  0  0  0  0  0  0  0  0
    3.7879    0.0000    0.0000 C   0  0  0  0  0  0  0  0  0  0  0  0
    4.3926    0.0000    0.0000 C   0  0  0  0  0  0  0  0  0  0  0  0
    4.2089    0.0000    0.0000 C   0  0  0  0  0  0  0  0  0  0  0  0
    3.4205    0.0000    0.0000 C   0  0  0  0  0  0  0  0  0  0  0  0
   -0.8540    0.0000    0.0000 C   0  0  0  0  0  0  0  0  0  0  0  0
   -0.1022    0.0000    0.0000 O   0  0  0  0  0  0  0  0  0  0  0  0
    0.7349    0.0000    0.0000 C   0  0  0  0  0  0  0  0  0  0  0  0
    0.6944    0.0000    0.0000 C   0  0  0  0  0  0  0  0  0  0  0  0
    1.6942    0.0000    0.0000 O   0  0  0  0  0  0  0  0  0  0  0  0
   -1.1090    0.0000    0.0000 C   0  0  0  0  0  0  0  0  0  0  0  0
   -0.3553    0.0000    0.0000 C   0  0  0  0  0  0  0  0  0  0  0  0
   -1.0227    0.0000    0.0000 O   0  0  0  0  0  0  0  0  0  0  0  0
   -1.9339    0.0000    0.0000 C   0  0  0  0  0  0  0  0  0  0  0  0
   -2.1888    0.0000    0.0000 C   0  0  0  0  0  0  0  0  0  0  0  0
   -2.9503    0.0000    0.0000 C   0  0  0  0  0  0  0  0  0  0  0  0
   -2.9503    0.0000    0.0000 C   0  0  0  0  0  0  0  0  0  0  0  0
   -2.2358    0.0000    0.0000 C   0  0  0  0  0  0  0  0  0  0  0  0
   -1.5215    0.0000    0.0000 C   0  0  0  0  0  0  0  0  0  0  0  0
   -2.0740    0.0000    0.0000 C   0  0  0  0  0  0  0  0  0  0  0  0
   -0.8070    0.0000    0.0000 C   0  0  0  0  0  0  0  0  0  0  0  0
   -1.0099    0.0000    0.0000 O   0  0  0  0  0  0  0  0  0  0  0  0
   -3.6648    0.0000    0.0000 C   0  0  0  0  0  0  0  0  0  0  0  0
   -4.3899    0.0000    0.0000 C   0  0  0  0  0  0  0  0  0  0  0  0
   -4.3926    0.0000    0.0000 C   0  0  0  0  0  0  0  0  0  0  0  0
  1  2  1  0      
  2  3  1  0      
  3  4  1  0      
  4  5  1  0      
  5  6  1  0      
  6  7  1  0      
  6  8  2  0      
  4  9  1  0      
  9 10  1  0      
  2 10  1  0      
 10 11  1  0      
 11 12  1  0      
 12 13  2  0      
 12 14  1  0      
 14 15  1  0      
 15 16  2  0      
 16 17  1  0      
 17 18  2  0      
 18 19  1  0      
 19 20  2  0      
 15 20  1  0      
  9 21  1  0      
 21 22  1  0      
 22 23  1  0      
 23 24  1  0      
 23 25  2  0      
 21 26  1  0      
 26 27  1  0      
 27 28  1  0      
 26 28  1  0      
 26 29  1  0      
 29 30  1  0      
 30 31  1  0      
 31 32  1  0      
 33 32  1  4      
 33 34  2  0      
 34 35  1  0      
 34 36  1  0      
  4 36  1  0      
 36 37  2  0      
 32 38  1  0      
 31 38  1  0      
 38 39  1  0      
 38 40  1  0      
M  END
>  <Bioactivity>
Euphorbiasteroid decreased differentiation of 3T3-L1 cells via reduction of intracellular triglyceride (TG) accumulation at concentrations of 25 and 50?¦ÌM. 

>  <CAS>
28649-59-4

>  <Col>
3

>  <Formula>
C32H40O8

>  <ID>
T3220

>  <Index>
612

>  <MOLENAME>
Euphorbiasteroid

>  <MolWt>
552.66

>  <Pathways>
Others

>  <Plate>
PLATE 008

>  <QR code>
1151480445

>  <Receptor>
Others

>  <Reference>
1. Park SJ, et al. Cell Biochem Funct. 2015 Jun;33(4):220-5. 

>  <Row>
F

>  <SMILES>
CC1CC2(OC(C)=O)C(C1OC(=O)CC1=CC=CC=C1)C(OC(C)=O)C1(CO1)CCC1C(C=C(C)C2=O)C1(C)C

>  <Target>
Others

>  <Weight>
10.4mg

$$$$
Lab-1.sdf
  ChemDraw05232018482D

 14 16  0  0  0  0  0  0  0  0999 V2000
    1.7294    0.0000    0.0000 C   0  0  0  0  0  0  0  0  0  0  0  0
    1.4745    0.0000    0.0000 C   0  0  0  0  0  0  0  0  0  0  0  0
    2.0265    0.0000    0.0000 N   0  0  0  0  0  0  0  0  0  0  0  0
    1.7715    0.0000    0.0000 C   0  0  0  0  0  0  0  0  0  0  0  0
    0.9646    0.0000    0.0000 C   0  0  0  0  0  0  0  0  0  0  0  0
    0.4125    0.0000    0.0000 C   0  0  0  0  0  0  0  0  0  0  0  0
    0.6675    0.0000    0.0000 C   0  0  0  0  0  0  0  0  0  0  0  0
   -0.0001    0.0000    0.0000 N   0  0  0  0  0  0  0  0  0  0  0  0
   -0.6675    0.0000    0.0000 C   0  0  0  0  0  0  0  0  0  0  0  0
   -1.4745    0.0000    0.0000 C   0  0  0  0  0  0  0  0  0  0  0  0
   -2.0265    0.0000    0.0000 C   0  0  0  0  0  0  0  0  0  0  0  0
   -1.7716    0.0000    0.0000 C   0  0  0  0  0  0  0  0  0  0  0  0
   -0.9646    0.0000    0.0000 C   0  0  0  0  0  0  0  0  0  0  0  0
   -0.4126    0.0000    0.0000 C   0  0  0  0  0  0  0  0  0  0  0  0
  1  2  1  0      
  2  3  2  0      
  3  4  1  0      
  4  5  2  0      
  5  6  1  0      
  6  7  2  0      
  2  7  1  0      
  7  8  1  0      
  8  9  1  0      
  9 10  2  0      
 10 11  1  0      
 11 12  2  0      
 12 13  1  0      
 13 14  2  0      
  6 14  1  0      
  9 14  1  0      
M  END
>  <Bioactivity>
Harmane (harman) is a bio-active ¦Â-Carboline and monoamine oxidase inhibitor found in coffee and tobacco smoke.

>  <CAS>
486-84-0

>  <Col>
4

>  <Formula>
C12H10N2

>  <ID>
T3158

>  <Index>
613

>  <MOLENAME>
Harmane

>  <MolWt>
182.22

>  <Pathways>
Others

>  <Plate>
PLATE 008

>  <QR code>
1151480446

>  <Receptor>
Others

>  <Reference>
1. Jakobsen H, et al. PLoS One. 2013;8(3):e60519.

>  <Row>
F

>  <SMILES>
CC1=NC=CC2=C1NC1=CC=CC=C21

>  <Target>
bio-active ¦Â-Carboline; monoamine oxidase inhibitor

>  <Weight>
10.3mg

$$$$
Lab-1.sdf
  ChemDraw05232018482D

 15 16  0  0  0  0  0  0  0  0999 V2000
    2.0245    0.0000    0.0000 C   0  0  0  0  0  0  0  0  0  0  0  0
    1.2087    0.0000    0.0000 C   0  0  0  0  0  0  0  0  0  0  0  0
    0.9073    0.0000    0.0000 C   0  0  0  0  0  0  0  0  0  0  0  0
    0.6943    0.0000    0.0000 C   0  0  0  0  0  0  0  0  0  0  0  0
   -0.1099    0.0000    0.0000 C   0  0  0  0  0  0  0  0  0  0  0  0
   -0.7549    0.0000    0.0000 C   0  0  0  0  0  0  0  0  0  0  0  0
   -1.5395    0.0000    0.0000 C   0  0  0  0  0  0  0  0  0  0  0  0
   -1.7945    0.0000    0.0000 C   0  0  0  0  0  0  0  0  0  0  0  0
   -2.0245    0.0000    0.0000 C   0  0  0  0  0  0  0  0  0  0  0  0
   -1.5395    0.0000    0.0000 C   0  0  0  0  0  0  0  0  0  0  0  0
   -0.7549    0.0000    0.0000 C   0  0  0  0  0  0  0  0  0  0  0  0
   -0.1099    0.0000    0.0000 C   0  0  0  0  0  0  0  0  0  0  0  0
   -0.2935    0.0000    0.0000 C   0  0  0  0  0  0  0  0  0  0  0  0
    0.6943    0.0000    0.0000 C   0  0  0  0  0  0  0  0  0  0  0  0
    1.0523    0.0000    0.0000 C   0  0  0  0  0  0  0  0  0  0  0  0
  1  2  1  0      
  2  3  1  0      
  2  4  1  0      
  4  5  2  0      
  5  6  1  0      
  6  7  2  0      
  7  8  1  0      
  7  9  1  0      
  9 10  2  0      
 10 11  1  0      
  6 11  1  0      
 11 12  2  0      
 12 13  1  0      
 12 14  1  0      
 14 15  2  0      
  4 15  1  0      
M  END
>  <Bioactivity>
A derivative of azulene, guaiazulene is a bicyclic sesquiterpene that is a constituent of some essential oils, mainly oil of guaiac and chamomile oil, which also serve as its commercial sources. 

>  <CAS>
489-84-9

>  <Col>
5

>  <Formula>
C15H18

>  <ID>
T3159

>  <Index>
614

>  <MOLENAME>
Guaiazulene

>  <MolWt>
198.3

>  <Pathways>
Others

>  <Plate>
PLATE 008

>  <QR code>
1151480447

>  <Receptor>
Others

>  <Reference>
1. Togar B, et al. J Intercult Ethnopharmacol. 2015 Jan-Mar;4(1):29-33.

>  <Row>
F

>  <SMILES>
CC(C)C1=CC2=C(C)C=CC2=C(C)C=C1

>  <Target>
Others

>  <Weight>
10.1mg

$$$$
Lab-1.sdf
  ChemDraw05232018482D

 19 22  0  0  0  0  0  0  0  0999 V2000
   -0.8559    0.0000    0.0000 C   0  0  0  0  0  0  0  0  0  0  0  0
   -0.6932    0.0000    0.0000 C   0  0  0  0  0  0  0  0  0  0  0  0
    0.0884    0.0000    0.0000 C   0  0  0  0  0  0  0  0  0  0  0  0
    0.8074    0.0000    0.0000 N   0  0  0  0  0  0  0  0  0  0  0  0
    1.4144    0.0000    0.0000 C   0  0  0  0  0  0  0  0  0  0  0  0
    2.2357    0.0000    0.0000 C   0  0  0  0  0  0  0  0  0  0  0  0
    2.7133    0.0000    0.0000 C   0  0  0  0  0  0  0  0  0  0  0  0
    2.3694    0.0000    0.0000 C   0  0  0  0  0  0  0  0  0  0  0  0
    1.5481    0.0000    0.0000 C   0  0  0  0  0  0  0  0  0  0  0  0
    1.0705    0.0000    0.0000 C   0  0  0  0  0  0  0  0  0  0  0  0
    0.2510    0.0000    0.0000 C   0  0  0  0  0  0  0  0  0  0  0  0
   -0.3680    0.0000    0.0000 C   0  0  0  0  0  0  0  0  0  0  0  0
   -0.2055    0.0000    0.0000 C   0  0  0  0  0  0  0  0  0  0  0  0
   -1.1498    0.0000    0.0000 C   0  0  0  0  0  0  0  0  0  0  0  0
   -1.3124    0.0000    0.0000 C   0  0  0  0  0  0  0  0  0  0  0  0
   -2.0941    0.0000    0.0000 C   0  0  0  0  0  0  0  0  0  0  0  0
   -2.7133    0.0000    0.0000 C   0  0  0  0  0  0  0  0  0  0  0  0
   -2.5507    0.0000    0.0000 N   0  0  0  0  0  0  0  0  0  0  0  0
   -1.7689    0.0000    0.0000 C   0  0  0  0  0  0  0  0  0  0  0  0
  1  2  1  0      
  2  3  2  0      
  3  4  1  0      
  4  5  1  0      
  5  6  2  0      
  6  7  1  0      
  7  8  2  0      
  8  9  1  0      
  9 10  2  0      
  5 10  1  0      
 10 11  1  0      
  3 11  1  0      
 11 12  2  0      
 12 13  1  0      
 12 14  1  0      
 14 15  2  0      
  2 15  1  0      
 15 16  1  0      
 16 17  2  0      
 17 18  1  0      
 18 19  2  0      
 14 19  1  0      
M  END
>  <Bioactivity>
Ellipticine is a potent antineoplastic agent exhibiting multiple mechanisms of action, IC50 of 1.25¡À0.13, 0.67¡À0.06, 1.25¡À0.13, 0.67¡À0.06, 0.27¡À0.02, 0.44¡À0.03, 0.49¡À0.04, and 1.48¡À0.62 ¦ÌM fo
r Breast adenocarcinoma MCF-7, Leukemia HL-60, Breast adenocarcinoma MCF-7, Leukemia HL-60, Neuroblastoma IMR-32, Neuroblastoma UKF-NB-3, Neuroblastoma UKF-NB-4, and Glioblastoma U87MG cell, respectiv
ely.

>  <CAS>
519-23-3

>  <Col>
6

>  <Formula>
C17H14N2

>  <ID>
T1166

>  <Index>
615

>  <MOLENAME>
Ellipticine

>  <MolWt>
246.31

>  <Pathways>
DNA Damage/DNA Repair

>  <Plate>
PLATE 008

>  <QR code>
1151480448

>  <Receptor>
Topoisomerase II

>  <Reference>
1. Savorani C, et al. Leuk Lymphoma. 2015 Mar;56(3):739-47.

>  <Row>
F

>  <SMILES>
CC1=C2NC3=CC=CC=C3C2=C(C)C2=C1C=CN=C2

>  <Target>
Topoisomerase inhibitor

>  <Weight>
10.4mg

$$$$
Lab-1.sdf
  ChemDraw05232018482D

 11 10  0  0  0  0  0  0  0  0999 V2000
    2.0625    0.0000    0.0000 C   0  0  0  0  0  0  0  0  0  0  0  0
    1.6500    0.0000    0.0000 C   0  0  0  0  0  0  0  0  0  0  0  0
    2.0625    0.0000    0.0000 C   0  0  0  0  0  0  0  0  0  0  0  0
    0.8250    0.0000    0.0000 C   0  0  0  0  0  0  0  0  0  0  0  0
    0.4125    0.0000    0.0000 C   0  0  0  0  0  0  0  0  0  0  0  0
   -0.4125    0.0000    0.0000 C   0  0  0  0  0  0  0  0  0  0  0  0
   -0.8250    0.0000    0.0000 C   0  0  0  0  0  0  0  0  0  0  0  0
   -0.4125    0.0000    0.0000 C   0  0  0  0  0  0  0  0  0  0  0  0
   -1.6500    0.0000    0.0000 C   0  0  0  0  0  0  0  0  0  0  0  0
   -2.0625    0.0000    0.0000 C   0  0  0  0  0  0  0  0  0  0  0  0
   -1.6500    0.0000    0.0000 O   0  0  0  0  0  0  0  0  0  0  0  0
  1  2  1  0      
  2  3  1  0      
  2  4  2  0      
  4  5  1  0      
  5  6  1  0      
  6  7  1  0      
  7  8  1  0      
  7  9  2  0      
  9 10  1  4      
 10 11  2  0      
M  END
>  <Bioactivity>
Citral is a clear yellow colored liquid with a lemon-like odor. Less dense than water and insoluble in water. Toxic by ingestion. Used to make other chemicals.

>  <CAS>
5392-40-5

>  <Col>
7

>  <Formula>
C10H16O

>  <ID>
T3154

>  <Index>
616

>  <MOLENAME>
Citral

>  <MolWt>
152.23

>  <Pathways>
Others

>  <Plate>
PLATE 008

>  <QR code>
1151480449

>  <Receptor>
Others

>  <Reference>
1. Zheng S, et al. Food Chem. 2015 Jul 1;178:76-81. 

>  <Row>
F

>  <SMILES>
CC(C)=CCCC(C)=CC=O

>  <Target>
Others

>  <Weight>
10.3mg

$$$$
Lab-1.sdf
  ChemDraw05232018482D

 67 74  0  0  0  0  0  0  0  0999 V2000
    0.5579    0.0000    0.0000 C   0  0  0  0  0  0  0  0  0  0  0  0
    0.7983    0.0000    0.0000 C   0  0  0  0  0  0  0  0  0  0  0  0
    1.3564    0.0000    0.0000 C   0  0  0  0  0  0  0  0  0  0  0  0
    2.1616    0.0000    0.0000 C   0  0  0  0  0  0  0  0  0  0  0  0
    2.4087    0.0000    0.0000 C   0  0  0  0  0  0  0  0  0  0  0  0
    1.8506    0.0000    0.0000 C   0  0  0  0  0  0  0  0  0  0  0  0
    2.5458    0.0000    0.0000 C   0  0  0  0  0  0  0  0  0  0  0  0
    1.0454    0.0000    0.0000 C   0  0  0  0  0  0  0  0  0  0  0  0
    0.4918    0.0000    0.0000 C   0  0  0  0  0  0  0  0  0  0  0  0
   -0.3171    0.0000    0.0000 C   0  0  0  0  0  0  0  0  0  0  0  0
   -0.6208    0.0000    0.0000 C   0  0  0  0  0  0  0  0  0  0  0  0
   -1.4314    0.0000    0.0000 C   0  0  0  0  0  0  0  0  0  0  0  0
   -2.0531    0.0000    0.0000 C   0  0  0  0  0  0  0  0  0  0  0  0
   -2.8664    0.0000    0.0000 C   0  0  0  0  0  0  0  0  0  0  0  0
   -1.6705    0.0000    0.0000 C   0  0  0  0  0  0  0  0  0  0  0  0
   -1.0951    0.0000    0.0000 C   0  0  0  0  0  0  0  0  0  0  0  0
   -1.1091    0.0000    0.0000 C   0  0  0  0  0  0  0  0  0  0  0  0
   -0.2639    0.0000    0.0000 C   0  0  0  0  0  0  0  0  0  0  0  0
   -0.0203    0.0000    0.0000 C   0  0  0  0  0  0  0  0  0  0  0  0
   -2.3593    0.0000    0.0000 O   0  0  0  0  0  0  0  0  0  0  0  0
   -2.3105    0.0000    0.0000 C   0  0  0  0  0  0  0  0  0  0  0  0
   -2.9993    0.0000    0.0000 O   0  0  0  0  0  0  0  0  0  0  0  0
   -2.9505    0.0000    0.0000 C   0  0  0  0  0  0  0  0  0  0  0  0
   -3.6393    0.0000    0.0000 C   0  0  0  0  0  0  0  0  0  0  0  0
   -3.5905    0.0000    0.0000 O   0  0  0  0  0  0  0  0  0  0  0  0
   -2.2128    0.0000    0.0000 C   0  0  0  0  0  0  0  0  0  0  0  0
   -2.1640    0.0000    0.0000 O   0  0  0  0  0  0  0  0  0  0  0  0
   -1.5240    0.0000    0.0000 C   0  0  0  0  0  0  0  0  0  0  0  0
   -0.7864    0.0000    0.0000 O   0  0  0  0  0  0  0  0  0  0  0  0
   -0.7376    0.0000    0.0000 C   0  0  0  0  0  0  0  0  0  0  0  0
   -1.4264    0.0000    0.0000 O   0  0  0  0  0  0  0  0  0  0  0  0
   -1.3776    0.0000    0.0000 C   0  0  0  0  0  0  0  0  0  0  0  0
   -2.0664    0.0000    0.0000 C   0  0  0  0  0  0  0  0  0  0  0  0
   -2.0176    0.0000    0.0000 O   0  0  0  0  0  0  0  0  0  0  0  0
   -0.6400    0.0000    0.0000 C   0  0  0  0  0  0  0  0  0  0  0  0
   -0.5912    0.0000    0.0000 O   0  0  0  0  0  0  0  0  0  0  0  0
    0.0487    0.0000    0.0000 C   0  0  0  0  0  0  0  0  0  0  0  0
    0.7864    0.0000    0.0000 O   0  0  0  0  0  0  0  0  0  0  0  0
   -0.0001    0.0000    0.0000 C   0  0  0  0  0  0  0  0  0  0  0  0
    0.6888    0.0000    0.0000 O   0  0  0  0  0  0  0  0  0  0  0  0
    1.4264    0.0000    0.0000 C   0  0  0  0  0  0  0  0  0  0  0  0
    1.4752    0.0000    0.0000 O   0  0  0  0  0  0  0  0  0  0  0  0
    2.2128    0.0000    0.0000 C   0  0  0  0  0  0  0  0  0  0  0  0
    2.2616    0.0000    0.0000 C   0  0  0  0  0  0  0  0  0  0  0  0
    2.9992    0.0000    0.0000 O   0  0  0  0  0  0  0  0  0  0  0  0
    2.9016    0.0000    0.0000 C   0  0  0  0  0  0  0  0  0  0  0  0
    3.6393    0.0000    0.0000 O   0  0  0  0  0  0  0  0  0  0  0  0
    2.8528    0.0000    0.0000 C   0  0  0  0  0  0  0  0  0  0  0  0
    3.5416    0.0000    0.0000 O   0  0  0  0  0  0  0  0  0  0  0  0
    2.1152    0.0000    0.0000 C   0  0  0  0  0  0  0  0  0  0  0  0
    2.0664    0.0000    0.0000 O   0  0  0  0  0  0  0  0  0  0  0  0
   -1.5728    0.0000    0.0000 C   0  0  0  0  0  0  0  0  0  0  0  0
   -0.8840    0.0000    0.0000 O   0  0  0  0  0  0  0  0  0  0  0  0
    1.5339    0.0000    0.0000 C   0  0  0  0  0  0  0  0  0  0  0  0
    0.7158    0.0000    0.0000 O   0  0  0  0  0  0  0  0  0  0  0  0
    2.0353    0.0000    0.0000 O   0  0  0  0  0  0  0  0  0  0  0  0
    1.7186    0.0000    0.0000 C   0  0  0  0  0  0  0  0  0  0  0  0
    2.2200    0.0000    0.0000 O   0  0  0  0  0  0  0  0  0  0  0  0
    1.9033    0.0000    0.0000 C   0  0  0  0  0  0  0  0  0  0  0  0
    2.4047    0.0000    0.0000 C   0  0  0  0  0  0  0  0  0  0  0  0
    2.0881    0.0000    0.0000 O   0  0  0  0  0  0  0  0  0  0  0  0
    1.0853    0.0000    0.0000 C   0  0  0  0  0  0  0  0  0  0  0  0
    0.7686    0.0000    0.0000 O   0  0  0  0  0  0  0  0  0  0  0  0
    0.5839    0.0000    0.0000 C   0  0  0  0  0  0  0  0  0  0  0  0
   -0.2341    0.0000    0.0000 O   0  0  0  0  0  0  0  0  0  0  0  0
    0.9005    0.0000    0.0000 C   0  0  0  0  0  0  0  0  0  0  0  0
    0.3991    0.0000    0.0000 O   0  0  0  0  0  0  0  0  0  0  0  0
  1  2  1  0      
  2  3  1  0      
  3  4  1  0      
  4  5  1  0      
  5  6  1  0      
  6  7  1  0      
  6  8  1  0      
  2  8  1  0      
  8  9  1  0      
  9 10  1  0      
 10 11  1  0      
 11 12  1  0      
 12 13  1  0      
 13 14  2  0      
 13 15  1  0      
 15 16  1  0      
 11 16  1  0      
 15 17  1  0      
 17 18  1  0      
 18 19  1  0      
  2 19  1  0      
 11 19  1  0      
 15 20  1  0      
 20 21  1  0      
 21 22  1  0      
 22 23  1  0      
 23 24  1  0      
 24 25  1  0      
 23 26  1  0      
 26 27  1  0      
 26 28  1  0      
 28 29  1  0      
 29 30  1  0      
 30 31  1  0      
 31 32  1  0      
 32 33  1  0      
 33 34  1  0      
 32 35  1  0      
 35 36  1  0      
 35 37  1  0      
 37 38  1  0      
 37 39  1  0      
 30 39  1  0      
 39 40  1  0      
 40 41  1  0      
 41 42  1  0      
 42 43  1  0      
 43 44  1  0      
 44 45  1  0      
 43 46  1  0      
 46 47  1  0      
 46 48  1  0      
 48 49  1  0      
 48 50  1  0      
 41 50  1  0      
 50 51  1  0      
 28 52  1  0      
 21 52  1  0      
 52 53  1  0      
  6 54  1  0      
 54 55  2  0      
 54 56  1  0      
 56 57  1  0      
 57 58  1  0      
 58 59  1  0      
 59 60  1  0      
 60 61  1  0      
 59 62  1  0      
 62 63  1  0      
 62 64  1  0      
 64 65  1  0      
 64 66  1  0      
 57 66  1  0      
 66 67  1  0      
M  END
>  <Bioactivity>
Rebaudioside A, a novel agent of glycoside clathration of pharmacons, is 200 times sweeter thansugar

>  <CAS>
58543-16-1

>  <Col>
8

>  <Formula>
C44H70O23

>  <ID>
T3235

>  <Index>
617

>  <MOLENAME>
Rebaudioside A

>  <MolWt>
967.01

>  <Pathways>
Others

>  <Plate>
PLATE 008

>  <QR code>
1151480450

>  <Receptor>
Others

>  <Reference>
1. T G Tolstikova et. al.Doklady Biological Sciences, 426, 205-206 (2009)

>  <Row>
F

>  <SMILES>
CC12CCCC(C)(C1CCC13CC(=C)C(C1)(CCC23)OC1OC(CO)C(O)C(OC2OC(CO)C(O)C(O)C2OC2OC(CO)C(O)C(O)C2O)C1O)C(=O)OC1OC(CO)C(O)C(O)C1O

>  <Target>
Others

>  <Weight>
10.1mg

$$$$
Lab-1.sdf
  ChemDraw05232018482D

 52 51  0  0  0  0  0  0  0  0999 V2000
  -11.7884    0.0000    0.0000 C   0  0  0  0  0  0  0  0  0  0  0  0
  -11.0740    0.0000    0.0000 C   0  0  0  0  0  0  0  0  0  0  0  0
  -10.3595    0.0000    0.0000 C   0  0  0  0  0  0  0  0  0  0  0  0
   -9.6451    0.0000    0.0000 C   0  0  0  0  0  0  0  0  0  0  0  0
   -8.9306    0.0000    0.0000 C   0  0  0  0  0  0  0  0  0  0  0  0
   -8.2162    0.0000    0.0000 C   0  0  0  0  0  0  0  0  0  0  0  0
   -7.5017    0.0000    0.0000 C   0  0  0  0  0  0  0  0  0  0  0  0
   -6.7873    0.0000    0.0000 C   0  0  0  0  0  0  0  0  0  0  0  0
   -6.0728    0.0000    0.0000 C   0  0  0  0  0  0  0  0  0  0  0  0
   -5.3583    0.0000    0.0000 C   0  0  0  0  0  0  0  0  0  0  0  0
   -4.6440    0.0000    0.0000 C   0  0  0  0  0  0  0  0  0  0  0  0
   -3.9295    0.0000    0.0000 C   0  0  0  0  0  0  0  0  0  0  0  0
   -3.2150    0.0000    0.0000 C   0  0  0  0  0  0  0  0  0  0  0  0
   -2.5005    0.0000    0.0000 C   0  0  0  0  0  0  0  0  0  0  0  0
   -1.7861    0.0000    0.0000 C   0  0  0  0  0  0  0  0  0  0  0  0
   -1.0717    0.0000    0.0000 C   0  0  0  0  0  0  0  0  0  0  0  0
   -1.0717    0.0000    0.0000 O   0  0  0  0  0  0  0  0  0  0  0  0
   -0.3572    0.0000    0.0000 O   0  0  0  0  0  0  0  0  0  0  0  0
    0.3572    0.0000    0.0000 C   0  0  0  0  0  0  0  0  0  0  0  0
    1.0717    0.0000    0.0000 C   0  0  0  0  0  0  0  0  0  0  0  0
    1.0717    0.0000    0.0000 C   0  0  0  0  0  0  0  0  0  0  0  0
    1.7861    0.0000    0.0000 O   0  0  0  0  0  0  0  0  0  0  0  0
    1.7861    0.0000    0.0000 P   0  0  0  0  0  0  0  0  0  0  0  0
    0.9612    0.0000    0.0000 O   0  5  0  0  0  0  0  0  0  0  0  0
    2.6111    0.0000    0.0000 O   0  0  0  0  0  0  0  0  0  0  0  0
    1.7861    0.0000    0.0000 O   0  0  0  0  0  0  0  0  0  0  0  0
    2.5005    0.0000    0.0000 C   0  0  0  0  0  0  0  0  0  0  0  0
    2.5005    0.0000    0.0000 C   0  0  0  0  0  0  0  0  0  0  0  0
    3.2150    0.0000    0.0000 N   0  3  0  0  0  0  0  0  0  0  0  0
    3.6275    0.0000    0.0000 C   0  0  0  0  0  0  0  0  0  0  0  0
    2.8025    0.0000    0.0000 C   0  0  0  0  0  0  0  0  0  0  0  0
    3.9295    0.0000    0.0000 C   0  0  0  0  0  0  0  0  0  0  0  0
    1.7861    0.0000    0.0000 O   0  0  0  0  0  0  0  0  0  0  0  0
    2.5005    0.0000    0.0000 C   0  0  0  0  0  0  0  0  0  0  0  0
    2.5005    0.0000    0.0000 O   0  0  0  0  0  0  0  0  0  0  0  0
    3.2150    0.0000    0.0000 C   0  0  0  0  0  0  0  0  0  0  0  0
    3.9295    0.0000    0.0000 C   0  0  0  0  0  0  0  0  0  0  0  0
    4.6440    0.0000    0.0000 C   0  0  0  0  0  0  0  0  0  0  0  0
    5.3583    0.0000    0.0000 C   0  0  0  0  0  0  0  0  0  0  0  0
    6.0728    0.0000    0.0000 C   0  0  0  0  0  0  0  0  0  0  0  0
    6.7873    0.0000    0.0000 C   0  0  0  0  0  0  0  0  0  0  0  0
    7.5017    0.0000    0.0000 C   0  0  0  0  0  0  0  0  0  0  0  0
    8.2162    0.0000    0.0000 C   0  0  0  0  0  0  0  0  0  0  0  0
    8.9306    0.0000    0.0000 C   0  0  0  0  0  0  0  0  0  0  0  0
    9.6451    0.0000    0.0000 C   0  0  0  0  0  0  0  0  0  0  0  0
    9.6451    0.0000    0.0000 C   0  0  0  0  0  0  0  0  0  0  0  0
   10.3595    0.0000    0.0000 C   0  0  0  0  0  0  0  0  0  0  0  0
   10.3595    0.0000    0.0000 C   0  0  0  0  0  0  0  0  0  0  0  0
   11.0740    0.0000    0.0000 C   0  0  0  0  0  0  0  0  0  0  0  0
   11.0740    0.0000    0.0000 C   0  0  0  0  0  0  0  0  0  0  0  0
   11.7884    0.0000    0.0000 C   0  0  0  0  0  0  0  0  0  0  0  0
   11.7884    0.0000    0.0000 C   0  0  0  0  0  0  0  0  0  0  0  0
  1  2  1  0      
  2  3  1  0      
  3  4  1  0      
  4  5  1  0      
  5  6  1  0      
  6  7  1  0      
  7  8  1  0      
  8  9  1  0      
  9 10  1  0      
 10 11  1  0      
 11 12  1  0      
 12 13  1  0      
 13 14  1  0      
 14 15  1  0      
 15 16  1  0      
 16 17  2  0      
 16 18  1  0      
 18 19  1  0      
 19 20  1  0      
 20 21  1  0      
 21 22  1  0      
 22 23  1  0      
 23 24  1  0      
 23 25  2  0      
 23 26  1  0      
 26 27  1  0      
 27 28  1  0      
 28 29  1  0      
 29 30  1  0      
 29 31  1  0      
 29 32  1  0      
 20 33  1  0      
 33 34  1  0      
 34 35  2  0      
 34 36  1  0      
 36 37  1  0      
 37 38  1  0      
 38 39  1  0      
 39 40  1  0      
 40 41  1  0      
 41 42  1  0      
 43 42  1  4      
 43 44  2  0      
 44 45  1  0      
 46 45  1  4      
 46 47  2  0      
 47 48  1  0      
 48 49  1  0      
 49 50  1  0      
 50 51  1  0      
 51 52  1  0      
M  CHG  2  24  -1  29   1
M  END
>  <Bioactivity>
Typical lots of egg yolk phosphatidylcholine have fatty acid contents of approximately 33% 16:0 (palmitic), 13% 18:0 (stearic), 31% 18:1(oleic), and 15% 18:2 (linoleic) (other fatty acids being minor 
contributors), which would give an average molecular weight of approximately 768.

>  <CAS>
8002-43-5

>  <Col>
9

>  <Formula>
C42H80NO8P

>  <ID>
T3237

>  <Index>
618

>  <MOLENAME>
L-¦Á-Phosphatidylcholine

>  <MolWt>
758.06

>  <Pathways>
Others

>  <Plate>
PLATE 008

>  <QR code>
1151480451

>  <Receptor>
Others

>  <Reference>
1. Mansour M, et al. Novel polyglycerol-dioleate based cubosomal dispersion with tailored physical characteristics for controlled delivery of ondansetron. Colloids Surf B Biointerfaces. 2017 Apr 26;15
6:44-54.

>  <Row>
F

>  <SMILES>
CCCCCCCCCCCCCCCC(=O)OCC(COP([O-])(=O)OCC[N+](C)(C)C)OC(=O)CCCCCCCC=CCC=CCCCCC

>  <Target>
Others

>  <Weight>
10.3mg

$$$$
Lab-1.sdf
  ChemDraw05232018482D

 36 35  0  0  0  0  0  0  0  0999 V2000
  -12.1456    0.0000    0.0000 C   0  0  0  0  0  0  0  0  0  0  0  0
  -11.4312    0.0000    0.0000 C   0  0  0  0  0  0  0  0  0  0  0  0
  -10.7167    0.0000    0.0000 C   0  0  0  0  0  0  0  0  0  0  0  0
  -10.0023    0.0000    0.0000 C   0  0  0  0  0  0  0  0  0  0  0  0
   -9.2878    0.0000    0.0000 C   0  0  0  0  0  0  0  0  0  0  0  0
   -8.5733    0.0000    0.0000 C   0  0  0  0  0  0  0  0  0  0  0  0
   -7.8589    0.0000    0.0000 C   0  0  0  0  0  0  0  0  0  0  0  0
   -7.1445    0.0000    0.0000 C   0  0  0  0  0  0  0  0  0  0  0  0
   -6.4300    0.0000    0.0000 C   0  0  0  0  0  0  0  0  0  0  0  0
   -5.7155    0.0000    0.0000 C   0  0  0  0  0  0  0  0  0  0  0  0
   -5.0012    0.0000    0.0000 C   0  0  0  0  0  0  0  0  0  0  0  0
   -4.2867    0.0000    0.0000 C   0  0  0  0  0  0  0  0  0  0  0  0
   -3.5722    0.0000    0.0000 C   0  0  0  0  0  0  0  0  0  0  0  0
   -2.8577    0.0000    0.0000 C   0  0  0  0  0  0  0  0  0  0  0  0
   -2.1433    0.0000    0.0000 C   0  0  0  0  0  0  0  0  0  0  0  0
   -1.4289    0.0000    0.0000 C   0  0  0  0  0  0  0  0  0  0  0  0
   -1.4289    0.0000    0.0000 O   0  0  0  0  0  0  0  0  0  0  0  0
   -0.7144    0.0000    0.0000 O   0  0  0  0  0  0  0  0  0  0  0  0
   -0.0000    0.0000    0.0000 C   0  0  0  0  0  0  0  0  0  0  0  0
    0.7145    0.0000    0.0000 C   0  0  0  0  0  0  0  0  0  0  0  0
    1.4290    0.0000    0.0000 C   0  0  0  0  0  0  0  0  0  0  0  0
    2.1433    0.0000    0.0000 C   0  0  0  0  0  0  0  0  0  0  0  0
    2.8578    0.0000    0.0000 C   0  0  0  0  0  0  0  0  0  0  0  0
    3.5723    0.0000    0.0000 C   0  0  0  0  0  0  0  0  0  0  0  0
    4.2868    0.0000    0.0000 C   0  0  0  0  0  0  0  0  0  0  0  0
    5.0012    0.0000    0.0000 C   0  0  0  0  0  0  0  0  0  0  0  0
    5.7156    0.0000    0.0000 C   0  0  0  0  0  0  0  0  0  0  0  0
    6.4301    0.0000    0.0000 C   0  0  0  0  0  0  0  0  0  0  0  0
    7.1445    0.0000    0.0000 C   0  0  0  0  0  0  0  0  0  0  0  0
    7.8590    0.0000    0.0000 C   0  0  0  0  0  0  0  0  0  0  0  0
    8.5734    0.0000    0.0000 C   0  0  0  0  0  0  0  0  0  0  0  0
    9.2879    0.0000    0.0000 C   0  0  0  0  0  0  0  0  0  0  0  0
   10.0023    0.0000    0.0000 C   0  0  0  0  0  0  0  0  0  0  0  0
   10.7168    0.0000    0.0000 C   0  0  0  0  0  0  0  0  0  0  0  0
   11.4313    0.0000    0.0000 C   0  0  0  0  0  0  0  0  0  0  0  0
   12.1456    0.0000    0.0000 C   0  0  0  0  0  0  0  0  0  0  0  0
  1  2  1  0      
  2  3  1  0      
  3  4  1  0      
  4  5  1  0      
  5  6  1  0      
  6  7  1  0      
  7  8  1  0      
  8  9  1  0      
  9 10  1  0      
 10 11  1  0      
 11 12  1  0      
 12 13  1  0      
 13 14  1  0      
 14 15  1  0      
 15 16  1  0      
 16 17  2  0      
 16 18  1  0      
 18 19  1  0      
 19 20  1  0      
 20 21  1  0      
 21 22  1  0      
 22 23  1  0      
 23 24  1  0      
 24 25  1  0      
 25 26  1  0      
 26 27  1  0      
 27 28  1  0      
 28 29  1  0      
 29 30  1  0      
 30 31  1  0      
 31 32  1  0      
 32 33  1  0      
 33 34  1  0      
 34 35  1  0      
 35 36  1  0      
M  END
>  <Bioactivity>
Lanolinis a wax secreted by thesebaceous glandsofwool-bearinganimals.

>  <CAS>
8006-54-0

>  <Col>
10

>  <Formula>
N/A

>  <ID>
T3238

>  <Index>
619

>  <MOLENAME>
Lanolin

>  <MolWt>
N/A

>  <Pathways>
Others

>  <Plate>
PLATE 008

>  <QR code>
1151480452

>  <Receptor>
Others

>  <Reference>
1. Sharma G, et al. Lanolin-based organogel of salicylic acid: evidences of better dermatokinetic profile in imiquimod-induced keratolytic therapy in BALB/c mice model. Drug Deliv Transl Res. 2017 Feb
 21.

>  <Row>
F

>  <SMILES>
CCCCCCCCCCCCCCCC(=O)(OCCCCCCCCCCCCCCCCCC)

>  <Target>
Others

>  <Weight>
10.4mg

$$$$
Lab-1.sdf
  ChemDraw05232018482D

 13 14  0  0  0  0  0  0  0  0999 V2000
    0.2465    0.0000    0.0000 C   0  0  0  0  0  0  0  0  0  0  0  0
    0.3327    0.0000    0.0000 C   0  0  0  0  0  0  0  0  0  0  0  0
    1.0472    0.0000    0.0000 C   0  0  0  0  0  0  0  0  0  0  0  0
    1.7617    0.0000    0.0000 C   0  0  0  0  0  0  0  0  0  0  0  0
    1.7617    0.0000    0.0000 C   0  0  0  0  0  0  0  0  0  0  0  0
    1.0472    0.0000    0.0000 C   0  0  0  0  0  0  0  0  0  0  0  0
    1.5775    0.0000    0.0000 C   0  0  0  0  0  0  0  0  0  0  0  0
    0.5169    0.0000    0.0000 C   0  0  0  0  0  0  0  0  0  0  0  0
    0.3327    0.0000    0.0000 C   0  0  0  0  0  0  0  0  0  0  0  0
   -0.4518    0.0000    0.0000 C   0  0  0  0  0  0  0  0  0  0  0  0
   -0.9367    0.0000    0.0000 C   0  0  0  0  0  0  0  0  0  0  0  0
   -1.7617    0.0000    0.0000 O   0  0  0  0  0  0  0  0  0  0  0  0
   -0.4518    0.0000    0.0000 O   0  0  0  0  0  0  0  0  0  0  0  0
  1  2  1  0      
  2  3  1  0      
  3  4  1  0      
  4  5  1  0      
  5  6  1  0      
  6  7  1  0      
  6  8  1  0      
  6  9  1  0      
  2  9  1  0      
  9 10  2  0      
 10 11  1  0      
 11 12  2  0      
 11 13  1  0      
  2 13  1  0      
M  END
>  <Bioactivity>
Dihydroactinidiolideis avolatileterpene. It has a sweet,tea-likeodorand is used as afragrance.

>  <CAS>
17092-92-1

>  <Col>
11

>  <Formula>
C11H16O2

>  <ID>
T3234

>  <Index>
620

>  <MOLENAME>
Dihydroactinidiolide

>  <MolWt>
180.24

>  <Pathways>
Others

>  <Plate>
PLATE 008

>  <QR code>
1151480453

>  <Receptor>
Others

>  <Reference>
1. Shumbe L, et al. Dihydroactinidiolide, a high light-induced ¦Â-carotene derivative that can regulate gene expression and photoacclimation in Arabidopsis. Mol Plant. 2014 Jul;7(7):1248-51.

>  <Row>
F

>  <SMILES>
CC12CCCC(C)(C)C1=CC(=O)O2

>  <Target>
Others

>  <Weight>
10.5mg

$$$$
Lab-1.sdf
  ChemDraw05232018482D

 12 12  0  0  0  0  0  0  0  0999 V2000
    1.0716    0.0000    0.0000 C   0  0  0  0  0  0  0  0  0  0  0  0
    0.3572    0.0000    0.0000 O   0  0  0  0  0  0  0  0  0  0  0  0
    0.3572    0.0000    0.0000 C   0  0  0  0  0  0  0  0  0  0  0  0
    1.0716    0.0000    0.0000 C   0  0  0  0  0  0  0  0  0  0  0  0
    1.7861    0.0000    0.0000 O   0  0  0  0  0  0  0  0  0  0  0  0
    1.0716    0.0000    0.0000 C   0  0  0  0  0  0  0  0  0  0  0  0
    0.3572    0.0000    0.0000 C   0  0  0  0  0  0  0  0  0  0  0  0
   -0.3573    0.0000    0.0000 C   0  0  0  0  0  0  0  0  0  0  0  0
   -0.3573    0.0000    0.0000 C   0  0  0  0  0  0  0  0  0  0  0  0
   -1.0717    0.0000    0.0000 C   0  0  0  0  0  0  0  0  0  0  0  0
   -1.0717    0.0000    0.0000 C   0  0  0  0  0  0  0  0  0  0  0  0
   -1.7861    0.0000    0.0000 O   0  0  0  0  0  0  0  0  0  0  0  0
  1  2  1  0      
  2  3  1  0      
  3  4  2  0      
  4  5  1  0      
  4  6  1  0      
  6  7  2  0      
  7  8  1  0      
  8  9  2  0      
  3  9  1  0      
  8 10  1  0      
 10 11  1  0      
 10 12  2  0      
M  END
>  <Bioactivity>
Apocynin is a selective NADPH-oxidase inhibitor with IC50 of 10 ¦ÌM.

>  <CAS>
498-02-2

>  <Col>
2

>  <Formula>
C9H10O3

>  <ID>
T6391

>  <Index>
621

>  <MOLENAME>
Acetovanillone

>  <MolWt>
166.17

>  <Pathways>
Others

>  <Plate>
PLATE 008

>  <QR code>
1151480441

>  <Receptor>
NADPH-oxidase

>  <Reference>
1. Stolk J,et al. Am J Respir Cell Mol Biol, 1994, 11(1), 95-102.

>  <Row>
G

>  <SMILES>
COC1=C(O)C=CC(=C1)C(C)=O

>  <Target>
Others

>  <Weight>
10.4mg

$$$$
Lab-1.sdf
  ChemDraw05232018482D

 31 34  0  0  0  0  0  0  0  0999 V2000
   -3.9296    0.0000    0.0000 O   0  0  0  0  0  0  0  0  0  0  0  0
   -3.9296    0.0000    0.0000 C   0  0  0  0  0  0  0  0  0  0  0  0
   -3.2151    0.0000    0.0000 C   0  0  0  0  0  0  0  0  0  0  0  0
   -3.2151    0.0000    0.0000 O   0  0  0  0  0  0  0  0  0  0  0  0
   -2.5006    0.0000    0.0000 C   0  0  0  0  0  0  0  0  0  0  0  0
   -2.5006    0.0000    0.0000 O   0  0  0  0  0  0  0  0  0  0  0  0
   -1.7861    0.0000    0.0000 C   0  0  0  0  0  0  0  0  0  0  0  0
   -1.7861    0.0000    0.0000 C   0  0  0  0  0  0  0  0  0  0  0  0
   -1.0717    0.0000    0.0000 C   0  0  0  0  0  0  0  0  0  0  0  0
   -0.3572    0.0000    0.0000 C   0  0  0  0  0  0  0  0  0  0  0  0
   -0.3572    0.0000    0.0000 C   0  0  0  0  0  0  0  0  0  0  0  0
   -1.0717    0.0000    0.0000 C   0  0  0  0  0  0  0  0  0  0  0  0
    0.3573    0.0000    0.0000 C   0  0  0  0  0  0  0  0  0  0  0  0
    0.3573    0.0000    0.0000 C   0  0  0  0  0  0  0  0  0  0  0  0
    1.0717    0.0000    0.0000 O   0  0  0  0  0  0  0  0  0  0  0  0
    1.7862    0.0000    0.0000 C   0  0  0  0  0  0  0  0  0  0  0  0
    2.5007    0.0000    0.0000 C   0  0  0  0  0  0  0  0  0  0  0  0
    3.2152    0.0000    0.0000 C   0  0  0  0  0  0  0  0  0  0  0  0
    3.9296    0.0000    0.0000 O   0  0  0  0  0  0  0  0  0  0  0  0
    3.2152    0.0000    0.0000 C   0  0  0  0  0  0  0  0  0  0  0  0
    2.5007    0.0000    0.0000 C   0  0  0  0  0  0  0  0  0  0  0  0
    2.5007    0.0000    0.0000 O   0  0  0  0  0  0  0  0  0  0  0  0
    1.7862    0.0000    0.0000 C   0  0  0  0  0  0  0  0  0  0  0  0
    1.0717    0.0000    0.0000 C   0  0  0  0  0  0  0  0  0  0  0  0
    1.0717    0.0000    0.0000 O   0  0  0  0  0  0  0  0  0  0  0  0
   -1.7861    0.0000    0.0000 C   0  0  0  0  0  0  0  0  0  0  0  0
   -1.0717    0.0000    0.0000 O   0  0  0  0  0  0  0  0  0  0  0  0
   -1.7861    0.0000    0.0000 C   0  0  0  0  0  0  0  0  0  0  0  0
   -1.0717    0.0000    0.0000 O   0  0  0  0  0  0  0  0  0  0  0  0
   -2.5006    0.0000    0.0000 C   0  0  0  0  0  0  0  0  0  0  0  0
   -2.5006    0.0000    0.0000 O   0  0  0  0  0  0  0  0  0  0  0  0
  1  2  1  0      
  2  3  1  0      
  3  4  1  0      
  4  5  1  0      
  5  6  1  0      
  6  7  1  0      
  7  8  2  0      
  8  9  1  0      
  9 10  2  0      
 10 11  1  0      
 11 12  2  0      
  7 12  1  0      
 10 13  1  0      
 13 14  2  0      
 14 15  1  0      
 15 16  1  0      
 16 17  2  0      
 17 18  1  0      
 18 19  1  0      
 18 20  2  0      
 20 21  1  0      
 21 22  1  0      
 21 23  2  0      
 16 23  1  0      
 23 24  1  0      
 13 24  1  0      
 24 25  2  0      
  5 26  1  0      
 26 27  1  0      
 26 28  1  0      
 28 29  1  0      
 28 30  1  0      
  3 30  1  0      
 30 31  1  0      
M  END
>  <Bioactivity>
Sophoricoside is effective against inflammation and can reduce the GPT

>  <CAS>
152-95-4

>  <Col>
3

>  <Formula>
C21H20O10

>  <ID>
T3233

>  <Index>
622

>  <MOLENAME>
Sophoricoside

>  <MolWt>
432.39

>  <Pathways>
Others

>  <Plate>
PLATE 008

>  <QR code>
1151480440

>  <Receptor>
Others

>  <Reference>
1. Wu C, et al. Modulation of lipogenesis and glucose consumption in HepG2 cells and C2C12 myotubes by sophoricoside. Molecules. 2013 Dec 13;18(12):15624-35.

>  <Row>
G

>  <SMILES>
OCC1OC(OC2=CC=C(C=C2)C2=COC3=CC(O)=CC(O)=C3C2=O)C(O)C(O)C1O

>  <Target>
Others

>  <Weight>
10.3mg

$$$$
Lab-1.sdf
  ChemDraw05232018482D

 21 22  0  0  0  0  0  0  0  0999 V2000
   -3.8006    0.0000    0.0000 Cl  0  0  0  0  0  0  0  0  0  0  0  0
   -1.9150    0.0000    0.0000 O   0  0  0  0  0  0  0  0  0  0  0  0
   -1.2005    0.0000    0.0000 C   0  0  0  0  0  0  0  0  0  0  0  0
   -1.2005    0.0000    0.0000 C   0  0  0  0  0  0  0  0  0  0  0  0
   -0.4860    0.0000    0.0000 C   0  0  0  0  0  0  0  0  0  0  0  0
    0.2283    0.0000    0.0000 C   0  0  0  0  0  0  0  0  0  0  0  0
    0.9428    0.0000    0.0000 C   0  0  0  0  0  0  0  0  0  0  0  0
    0.9428    0.0000    0.0000 C   0  0  0  0  0  0  0  0  0  0  0  0
    0.2283    0.0000    0.0000 N   0  0  0  0  0  0  0  0  0  0  0  0
    0.2283    0.0000    0.0000 C   0  0  0  0  0  0  0  0  0  0  0  0
    0.9428    0.0000    0.0000 C   0  0  0  0  0  0  0  0  0  0  0  0
    1.6573    0.0000    0.0000 C   0  0  0  0  0  0  0  0  0  0  0  0
    2.3717    0.0000    0.0000 C   0  0  0  0  0  0  0  0  0  0  0  0
    3.0862    0.0000    0.0000 C   0  0  0  0  0  0  0  0  0  0  0  0
    3.8006    0.0000    0.0000 O   0  0  0  0  0  0  0  0  0  0  0  0
    3.0862    0.0000    0.0000 C   0  0  0  0  0  0  0  0  0  0  0  0
    3.8006    0.0000    0.0000 O   0  0  0  0  0  0  0  0  0  0  0  0
    2.3717    0.0000    0.0000 C   0  0  0  0  0  0  0  0  0  0  0  0
    1.6573    0.0000    0.0000 C   0  0  0  0  0  0  0  0  0  0  0  0
    0.2283    0.0000    0.0000 C   0  0  0  0  0  0  0  0  0  0  0  0
   -0.4860    0.0000    0.0000 C   0  0  0  0  0  0  0  0  0  0  0  0
  2  3  1  0      
  3  4  2  0      
  4  5  1  0      
  5  6  2  0      
  6  7  1  0      
  7  8  1  0      
  8  9  1  0      
  9 10  1  0      
 10 11  1  0      
 11 12  1  0      
 12 13  2  0      
 13 14  1  0      
 14 15  1  0      
 14 16  2  0      
 16 17  1  0      
 16 18  1  0      
 18 19  2  0      
  8 19  1  0      
 12 19  1  0      
  6 20  1  0      
 20 21  2  0      
  3 21  1  0      
M  END
>  <Bioactivity>
Higenamine(Hydrochloride) has been demonstrated to be a?¦Â2?adrenoreceptor agonist. Adrenergic receptors, or adrenoceptors, belong to the class of?G protein?coupled receptors, and are the most promine
nt receptors in the?adipose?membrane, besides also being expressed in skeletal muscle tissue.?

>  <CAS>
11041-94-4

>  <Col>
4

>  <Formula>
C16H17NO3?HCl

>  <ID>
T3232

>  <Index>
623

>  <MOLENAME>
Higenamine?Hydrochloride

>  <MolWt>
307.772

>  <Pathways>
Others

>  <Plate>
PLATE 008

>  <QR code>
1151480439

>  <Receptor>
Others

>  <Reference>
1. Tsukiyama M, et al. Beta2-adrenoceptor-mediated tracheal relaxation induced by higenamine from Nandina domestica Thunberg. Planta Med. 2009 Oct;75(13):1393-9.

>  <Row>
G

>  <SMILES>
Cl.OC1=CC=C(CC2NCCC3=CC(O)=C(O)C=C23)C=C1

>  <Target>
Others

>  <Weight>
10.4mg

$$$$
Lab-1.sdf
  ChemDraw05232018482D

 46 45  0  0  0  0  0  0  0  0999 V2000
   10.7250    0.0000    0.0000 C   0  0  0  0  0  0  0  0  0  0  0  0
   10.3125    0.0000    0.0000 C   0  0  0  0  0  0  0  0  0  0  0  0
   10.7250    0.0000    0.0000 C   0  0  0  0  0  0  0  0  0  0  0  0
    9.4875    0.0000    0.0000 C   0  0  0  0  0  0  0  0  0  0  0  0
    9.0750    0.0000    0.0000 C   0  0  0  0  0  0  0  0  0  0  0  0
    8.2500    0.0000    0.0000 C   0  0  0  0  0  0  0  0  0  0  0  0
    7.8375    0.0000    0.0000 C   0  0  0  0  0  0  0  0  0  0  0  0
    8.2500    0.0000    0.0000 C   0  0  0  0  0  0  0  0  0  0  0  0
    7.0125    0.0000    0.0000 C   0  0  0  0  0  0  0  0  0  0  0  0
    6.6000    0.0000    0.0000 C   0  0  0  0  0  0  0  0  0  0  0  0
    5.7750    0.0000    0.0000 C   0  0  0  0  0  0  0  0  0  0  0  0
    5.3625    0.0000    0.0000 C   0  0  0  0  0  0  0  0  0  0  0  0
    5.7750    0.0000    0.0000 C   0  0  0  0  0  0  0  0  0  0  0  0
    4.5375    0.0000    0.0000 C   0  0  0  0  0  0  0  0  0  0  0  0
    4.1250    0.0000    0.0000 C   0  0  0  0  0  0  0  0  0  0  0  0
    3.3000    0.0000    0.0000 C   0  0  0  0  0  0  0  0  0  0  0  0
    2.8875    0.0000    0.0000 C   0  0  0  0  0  0  0  0  0  0  0  0
    3.3000    0.0000    0.0000 C   0  0  0  0  0  0  0  0  0  0  0  0
    2.0625    0.0000    0.0000 C   0  0  0  0  0  0  0  0  0  0  0  0
    1.6500    0.0000    0.0000 C   0  0  0  0  0  0  0  0  0  0  0  0
    0.8250    0.0000    0.0000 C   0  0  0  0  0  0  0  0  0  0  0  0
    0.4125    0.0000    0.0000 C   0  0  0  0  0  0  0  0  0  0  0  0
    0.8250    0.0000    0.0000 C   0  0  0  0  0  0  0  0  0  0  0  0
   -0.4125    0.0000    0.0000 C   0  0  0  0  0  0  0  0  0  0  0  0
   -0.8250    0.0000    0.0000 C   0  0  0  0  0  0  0  0  0  0  0  0
   -1.6500    0.0000    0.0000 C   0  0  0  0  0  0  0  0  0  0  0  0
   -2.0625    0.0000    0.0000 C   0  0  0  0  0  0  0  0  0  0  0  0
   -1.6500    0.0000    0.0000 C   0  0  0  0  0  0  0  0  0  0  0  0
   -2.8875    0.0000    0.0000 C   0  0  0  0  0  0  0  0  0  0  0  0
   -3.3000    0.0000    0.0000 C   0  0  0  0  0  0  0  0  0  0  0  0
   -4.1250    0.0000    0.0000 C   0  0  0  0  0  0  0  0  0  0  0  0
   -4.5375    0.0000    0.0000 C   0  0  0  0  0  0  0  0  0  0  0  0
   -4.1250    0.0000    0.0000 C   0  0  0  0  0  0  0  0  0  0  0  0
   -5.3625    0.0000    0.0000 C   0  0  0  0  0  0  0  0  0  0  0  0
   -5.7750    0.0000    0.0000 C   0  0  0  0  0  0  0  0  0  0  0  0
   -6.6000    0.0000    0.0000 C   0  0  0  0  0  0  0  0  0  0  0  0
   -7.0125    0.0000    0.0000 C   0  0  0  0  0  0  0  0  0  0  0  0
   -6.6000    0.0000    0.0000 C   0  0  0  0  0  0  0  0  0  0  0  0
   -7.8375    0.0000    0.0000 C   0  0  0  0  0  0  0  0  0  0  0  0
   -8.2500    0.0000    0.0000 C   0  0  0  0  0  0  0  0  0  0  0  0
   -9.0750    0.0000    0.0000 C   0  0  0  0  0  0  0  0  0  0  0  0
   -9.4875    0.0000    0.0000 C   0  0  0  0  0  0  0  0  0  0  0  0
   -9.0750    0.0000    0.0000 C   0  0  0  0  0  0  0  0  0  0  0  0
  -10.3125    0.0000    0.0000 C   0  0  0  0  0  0  0  0  0  0  0  0
  -10.7250    0.0000    0.0000 C   0  0  0  0  0  0  0  0  0  0  0  0
  -10.3125    0.0000    0.0000 O   0  0  0  0  0  0  0  0  0  0  0  0
  1  2  1  0      
  2  3  1  0      
  2  4  2  0      
  4  5  1  0      
  5  6  1  0      
  6  7  1  0      
  7  8  1  0      
  7  9  2  0      
  9 10  1  4      
 10 11  1  0      
 11 12  1  0      
 12 13  1  0      
 12 14  2  0      
 14 15  1  4      
 15 16  1  0      
 16 17  1  0      
 17 18  1  0      
 17 19  2  0      
 19 20  1  4      
 20 21  1  0      
 21 22  1  0      
 22 23  1  0      
 22 24  2  0      
 24 25  1  4      
 25 26  1  0      
 26 27  1  0      
 27 28  1  0      
 27 29  2  0      
 29 30  1  4      
 30 31  1  0      
 31 32  1  0      
 32 33  1  0      
 32 34  2  0      
 34 35  1  4      
 35 36  1  0      
 36 37  1  0      
 37 38  1  0      
 37 39  2  0      
 39 40  1  4      
 40 41  1  0      
 41 42  1  0      
 42 43  1  0      
 42 44  2  0      
 44 45  1  4      
 45 46  1  0      
M  END
>  <Bioactivity>
Phytochemical present in tobacco leaf. Starting material for synthesis of co-enzyme Q10. Exhibits antiulcer activity.

>  <CAS>
13190-97-1

>  <Col>
5

>  <Formula>
C45H74O

>  <ID>
T3236

>  <Index>
624

>  <MOLENAME>
Solanesol

>  <MolWt>
631.07

>  <Pathways>
Others

>  <Plate>
PLATE 008

>  <QR code>
1151480438

>  <Receptor>
Others

>  <Reference>
1. Yao X, et al. Solanesol induces the expression of heme oxygenase-1 via p38 and Akt and suppresses the production of proinflammatory cytokines in RAW264.7 cells. Food Funct. 2017 Jan 25;8(1):132-141
.

>  <Row>
G

>  <SMILES>
CC(C)=CCCC(C)=CCCC(C)=CCCC(C)=CCCC(C)=CCCC(C)=CCCC(C)=CCCC(C)=CCCC(C)=CCO

>  <Target>
Others

>  <Weight>
10.3mg

$$$$
Lab-1.sdf
  ChemDraw05232018482D

 14 14  0  0  0  0  0  0  0  0999 V2000
   -1.1269    0.0000    0.0000 C   0  0  0  0  0  0  0  0  0  0  0  0
   -0.3020    0.0000    0.0000 C   0  0  0  0  0  0  0  0  0  0  0  0
   -0.3020    0.0000    0.0000 C   0  0  0  0  0  0  0  0  0  0  0  0
    0.4124    0.0000    0.0000 C   0  0  0  0  0  0  0  0  0  0  0  0
    0.4124    0.0000    0.0000 C   0  0  0  0  0  0  0  0  0  0  0  0
   -0.3020    0.0000    0.0000 C   0  0  0  0  0  0  0  0  0  0  0  0
   -1.0164    0.0000    0.0000 C   0  0  0  0  0  0  0  0  0  0  0  0
   -1.0164    0.0000    0.0000 C   0  0  0  0  0  0  0  0  0  0  0  0
   -0.3020    0.0000    0.0000 O   0  0  0  0  0  0  0  0  0  0  0  0
    1.1269    0.0000    0.0000 O   0  0  0  0  0  0  0  0  0  0  0  0
   -0.3020    0.0000    0.0000 C   0  0  0  0  0  0  0  0  0  0  0  0
   -1.0164    0.0000    0.0000 O   0  0  0  0  0  0  0  0  0  0  0  0
    0.4124    0.0000    0.0000 O   0  0  0  0  0  0  0  0  0  0  0  0
    0.5230    0.0000    0.0000 O   0  0  0  0  0  0  0  0  0  0  0  0
  1  2  1  0      
  2  3  1  0      
  3  4  2  0      
  4  5  1  0      
  5  6  2  0      
  6  7  1  0      
  7  8  2  0      
  3  8  1  0      
  6  9  1  0      
  5 10  1  0      
  2 11  1  0      
 11 12  2  0      
 11 13  1  0      
  2 14  1  0      
M  END
>  <Bioactivity>
 Danshensu has antioxidant activity, can enhance HO-1 expression to suppress 6-OHDA-induced oxidative damage via PI3K/Akt/Nrf2 signaling pathways.

>  <CAS>
22681-72-7

>  <Col>
6

>  <Formula>
C9H10O5

>  <ID>
T3490

>  <Index>
625

>  <MOLENAME>
Danshensu

>  <MolWt>
198.174

>  <Pathways>
PI3K/Akt

>  <Plate>
PLATE 008

>  <QR code>
1151480437

>  <Receptor>
Others

>  <Reference>
1.Kwon G1, Kim HJ2, Park SJ1,et al.Anxiolytic-like effect of danshensu [(3-(3,4-dihydroxyphenyl)-lactic acid)] in mice.Life Sci. 2014 Apr 17;101(1-2):73-8. 

>  <Row>
G

>  <SMILES>
CC(C1=CC(=C(C=C1)O)O)(C(=O)O)O

>  <Target>
Others

>  <Weight>
10.2mg

$$$$
Lab-1.sdf
  ChemDraw05232018482D

 17 20  0  0  0  0  0  0  0  0999 V2000
   -2.4247    0.0000    0.0000 C   0  0  0  0  0  0  0  0  0  0  0  0
   -2.4247    0.0000    0.0000 C   0  0  0  0  0  0  0  0  0  0  0  0
   -1.7103    0.0000    0.0000 C   0  0  0  0  0  0  0  0  0  0  0  0
   -0.9959    0.0000    0.0000 N   0  0  0  0  0  0  0  0  0  0  0  0
   -0.4125    0.0000    0.0000 C   0  0  0  0  0  0  0  0  0  0  0  0
    0.4125    0.0000    0.0000 C   0  0  0  0  0  0  0  0  0  0  0  0
   -0.2490    0.0000    0.0000 C   0  0  0  0  0  0  0  0  0  0  0  0
   -0.4125    0.0000    0.0000 C   0  0  0  0  0  0  0  0  0  0  0  0
    0.4125    0.0000    0.0000 C   0  0  0  0  0  0  0  0  0  0  0  0
    0.9958    0.0000    0.0000 C   0  0  0  0  0  0  0  0  0  0  0  0
    1.7102    0.0000    0.0000 C   0  0  0  0  0  0  0  0  0  0  0  0
    2.4247    0.0000    0.0000 C   0  0  0  0  0  0  0  0  0  0  0  0
    2.4247    0.0000    0.0000 C   0  0  0  0  0  0  0  0  0  0  0  0
    1.7102    0.0000    0.0000 N   0  0  0  0  0  0  0  0  0  0  0  0
    0.9958    0.0000    0.0000 C   0  0  0  0  0  0  0  0  0  0  0  0
   -0.9959    0.0000    0.0000 C   0  0  0  0  0  0  0  0  0  0  0  0
   -1.7103    0.0000    0.0000 C   0  0  0  0  0  0  0  0  0  0  0  0
  1  2  1  0      
  2  3  1  0      
  3  4  1  0      
  4  5  1  0      
  5  6  1  0      
  6  7  1  0      
  7  8  1  0      
  8  9  1  0      
  9 10  2  0      
 10 11  1  0      
 11 12  1  0      
 12 13  1  0      
 13 14  1  0      
 14 15  1  0      
  6 15  1  0      
 10 15  1  0      
  8 16  1  0      
  4 16  1  0      
 16 17  1  0      
  1 17  1  0      
M  END
>  <Bioactivity>
Aloperine is an isolated alkaloid in sophora plants such as Sophora alopecuroides L, and exhibits anti-inflammatory, antibacterial, antiviral, and anti-tumor properties.

>  <CAS>
56293-29-9

>  <Col>
7

>  <Formula>
C15H24N2

>  <ID>
T6377

>  <Index>
626

>  <MOLENAME>
Aloperine

>  <MolWt>
232.36

>  <Pathways>
Others

>  <Plate>
PLATE 008

>  <QR code>
1151480436

>  <Receptor>
Others

>  <Reference>
1. Yuan XY, et al. Eur J Pharmacol, 2010, 629(1-3), 147-152.

>  <Row>
G

>  <SMILES>
C1CCN2CC3CC(C=C4CCCNC34)C2C1

>  <Target>
Others

>  <Weight>
10.3mg

$$$$
Lab-1.sdf
  ChemDraw05232018482D

 52 52  0  0  0  0  0  0  0  0999 V2000
   -5.6974    0.0000    0.0000 C   0  0  0  0  0  0  0  0  0  0  0  0
   -6.4119    0.0000    0.0000 C   0  0  0  0  0  0  0  0  0  0  0  0
   -6.4119    0.0000    0.0000 N   0  0  0  0  0  0  0  0  0  0  0  0
   -5.6974    0.0000    0.0000 C   0  0  0  0  0  0  0  0  0  0  0  0
   -4.9830    0.0000    0.0000 N   0  0  0  0  0  0  0  0  0  0  0  0
   -4.9830    0.0000    0.0000 C   0  0  0  0  0  0  0  0  0  0  0  0
   -4.2685    0.0000    0.0000 C   0  0  0  0  0  0  0  0  0  0  0  0
   -4.2685    0.0000    0.0000 C   0  0  0  0  0  0  0  0  0  0  0  0
   -4.6041    0.0000    0.0000 O   0  0  0  0  0  0  0  0  0  0  0  0
   -3.5540    0.0000    0.0000 N   0  0  0  0  0  0  0  0  0  0  0  0
   -2.8396    0.0000    0.0000 C   0  0  0  0  0  0  0  0  0  0  0  0
   -2.8396    0.0000    0.0000 C   0  0  0  0  0  0  0  0  0  0  0  0
   -2.1251    0.0000    0.0000 C   0  0  0  0  0  0  0  0  0  0  0  0
   -1.4106    0.0000    0.0000 O   0  0  0  0  0  0  0  0  0  0  0  0
   -2.1251    0.0000    0.0000 N   0  0  0  0  0  0  0  0  0  0  0  0
   -1.4106    0.0000    0.0000 C   0  0  0  0  0  0  0  0  0  0  0  0
   -1.7487    0.0000    0.0000 C   0  0  0  0  0  0  0  0  0  0  0  0
   -0.6961    0.0000    0.0000 O   0  0  0  0  0  0  0  0  0  0  0  0
   -2.1251    0.0000    0.0000 N   0  0  0  0  0  0  0  0  0  0  0  0
   -2.8396    0.0000    0.0000 C   0  0  0  0  0  0  0  0  0  0  0  0
   -3.5540    0.0000    0.0000 C   0  0  0  0  0  0  0  0  0  0  0  0
   -3.5540    0.0000    0.0000 O   0  0  0  0  0  0  0  0  0  0  0  0
   -4.2685    0.0000    0.0000 N   0  0  0  0  0  0  0  0  0  0  0  0
   -4.2685    0.0000    0.0000 C   0  0  0  0  0  0  0  0  0  0  0  0
   -4.9830    0.0000    0.0000 C   0  0  0  0  0  0  0  0  0  0  0  0
   -4.9830    0.0000    0.0000 N   0  0  0  0  0  0  0  0  0  0  0  0
   -5.6974    0.0000    0.0000 C   0  0  0  0  0  0  0  0  0  0  0  0
   -6.4119    0.0000    0.0000 O   0  0  0  0  0  0  0  0  0  0  0  0
   -5.6974    0.0000    0.0000 N   0  0  0  0  0  0  0  0  0  0  0  0
   -4.9830    0.0000    0.0000 C   0  0  0  0  0  0  0  0  0  0  0  0
   -5.6974    0.0000    0.0000 O   0  0  0  0  0  0  0  0  0  0  0  0
   -4.9830    0.0000    0.0000 N   0  0  0  0  0  0  0  0  0  0  0  0
   -2.8396    0.0000    0.0000 C   0  0  0  0  0  0  0  0  0  0  0  0
   -2.1251    0.0000    0.0000 N   0  0  0  0  0  0  0  0  0  0  0  0
   -1.4106    0.0000    0.0000 C   0  0  0  0  0  0  0  0  0  0  0  0
   -1.4106    0.0000    0.0000 O   0  0  0  0  0  0  0  0  0  0  0  0
   -0.6961    0.0000    0.0000 C   0  0  0  0  0  0  0  0  0  0  0  0
    0.0183    0.0000    0.0000 C   0  0  0  0  0  0  0  0  0  0  0  0
    0.7328    0.0000    0.0000 C   0  0  0  0  0  0  0  0  0  0  0  0
    1.4473    0.0000    0.0000 C   0  0  0  0  0  0  0  0  0  0  0  0
    2.1617    0.0000    0.0000 C   0  0  0  0  0  0  0  0  0  0  0  0
    2.8762    0.0000    0.0000 N   0  0  0  0  0  0  0  0  0  0  0  0
    0.0183    0.0000    0.0000 N   0  0  0  0  0  0  0  0  0  0  0  0
   -0.6961    0.0000    0.0000 C   0  0  0  0  0  0  0  0  0  0  0  0
    0.0183    0.0000    0.0000 O   0  0  0  0  0  0  0  0  0  0  0  0
   -3.5540    0.0000    0.0000 N   0  0  0  0  0  0  0  0  0  0  0  0
   -5.6974    0.0000    0.0000 N   0  0  0  0  0  0  0  0  0  0  0  0
    5.5869    0.0000    0.0000 O   0  0  0  0  0  0  0  0  0  0  0  0
    5.5869    0.0000    0.0000 S   0  0  0  0  0  0  0  0  0  0  0  0
    5.5869    0.0000    0.0000 O   0  0  0  0  0  0  0  0  0  0  0  0
    6.4119    0.0000    0.0000 O   0  0  0  0  0  0  0  0  0  0  0  0
    4.7619    0.0000    0.0000 O   0  0  0  0  0  0  0  0  0  0  0  0
  1  2  1  0      
  2  3  1  0      
  3  4  2  0      
  4  5  1  0      
  5  6  1  0      
  1  6  1  0      
  6  7  1  0      
  7  8  1  0      
  8  9  2  0      
  8 10  1  0      
 10 11  1  0      
 11 12  1  0      
 12 13  1  0      
 13 14  2  0      
 13 15  1  0      
 15 16  1  0      
 16 17  1  0      
 17 18  2  0      
 17 19  1  0      
 19 20  1  0      
 20 21  1  0      
 21 22  2  0      
 21 23  1  0      
 23 24  1  0      
 24 25  2  0      
 25 26  1  4      
 26 27  1  0      
 27 28  2  0      
 27 29  1  0      
 24 30  1  0      
 30 31  2  0      
 30 32  1  0      
  7 32  1  0      
 20 33  1  0      
 33 34  1  0      
 34 35  1  0      
 35 36  2  0      
 35 37  1  0      
 37 38  1  0      
 38 39  1  0      
 39 40  1  0      
 40 41  1  0      
 41 42  1  0      
 38 43  1  0      
 16 44  1  0      
 44 45  1  0      
 12 46  1  0      
  4 47  1  0      
 48 49  1  0      
 49 50  2  0      
 49 51  2  0      
 49 52  1  0      
M  END
>  <Bioactivity>
Capreomycin Sulfate is a cyclic peptide antibiotic and thought to inhibit protein synthesis by binding to the 70S ribosomal unit.

>  <CAS>
1405-37-4

>  <Col>
8

>  <Formula>
C25H46N14O12S

>  <ID>
T1441

>  <Index>
627

>  <MOLENAME>
Capastat sulfate

>  <MolWt>
752.76

>  <Pathways>
Microbiology & Virology

>  <Plate>
PLATE 008

>  <QR code>
1151480435

>  <Receptor>
70S ribosome

>  <Reference>
1. Stokowa K, et al. J Inorg Biochem, 2012, 106(1), 111-116.

>  <Row>
G

>  <SMILES>
C1CN=C(NC1C2C(=O)NCC(C(=O)NC(C(=O)NC(C(=O)NC(=CNC(=O)N)C(=O)N2)CNC(=O)CC(CCCN)N)CO)N)N.OS(=O)(=O)O

>  <Target>
Antibiotic

>  <Weight>
10.4mg

$$$$
Lab-1.sdf
  ChemDraw05232018482D

  8  7  0  0  0  0  0  0  0  0999 V2000
   -0.3572    0.0000    0.0000 C   0  0  0  0  0  0  0  0  0  0  0  0
    0.0552    0.0000    0.0000 N   0  3  0  0  0  0  0  0  0  0  0  0
   -0.6592    0.0000    0.0000 C   0  0  0  0  0  0  0  0  0  0  0  0
    0.7697    0.0000    0.0000 C   0  0  0  0  0  0  0  0  0  0  0  0
    0.4677    0.0000    0.0000 C   0  0  0  0  0  0  0  0  0  0  0  0
    0.0552    0.0000    0.0000 C   0  0  0  0  0  0  0  0  0  0  0  0
    0.4677    0.0000    0.0000 O   0  0  0  0  0  0  0  0  0  0  0  0
   -0.7697    0.0000    0.0000 O   0  0  0  0  0  0  0  0  0  0  0  0
  1  2  1  0      
  2  3  1  0      
  2  4  1  0      
  2  5  1  0      
  5  6  1  0      
  6  7  1  0      
  6  8  2  0      
M  CHG  1   2   1
M  END
>  <Bioactivity>
Betaine is also known as trimethylamine, and is the quaternary ammonium derivatives of glycine and a class of N-methyl-compound or trimethyl inner salt after the hydrogen of the amino group being subs
tituted by the methyl group.

>  <CAS>
107-43-7

>  <Col>
9

>  <Formula>
C5H11NO2

>  <ID>
T3243

>  <Index>
628

>  <MOLENAME>
Betaine

>  <MolWt>
117.15

>  <Pathways>
Others

>  <Plate>
PLATE 008

>  <QR code>
1151480434

>  <Receptor>
Others

>  <Reference>
1. Kim DH, et al. Effect of betaine on hepatic insulin resistance through FOXO1-induced NLRP3 inflammasome. J Nutr Biochem. 2017 Apr 22;45:104-114.

>  <Row>
G

>  <SMILES>
C[N+](C)(C)CC(O)=O

>  <Target>
Others

>  <Weight>
10.2mg

$$$$
Lab-1.sdf
  ChemDraw05232018482D

 25 29  0  0  0  0  0  0  0  0999 V2000
   -2.5752    0.0000    0.0000 C   0  0  0  0  0  0  0  0  0  0  0  0
   -1.8046    0.0000    0.0000 C   0  0  0  0  0  0  0  0  0  0  0  0
   -1.1640    0.0000    0.0000 C   0  0  0  0  0  0  0  0  0  0  0  0
   -1.0341    0.0000    0.0000 C   0  0  0  0  0  0  0  0  0  0  0  0
   -0.2636    0.0000    0.0000 C   0  0  0  0  0  0  0  0  0  0  0  0
   -0.1337    0.0000    0.0000 C   0  0  0  0  0  0  0  0  0  0  0  0
    0.6369    0.0000    0.0000 O   0  0  0  0  0  0  0  0  0  0  0  0
   -0.7743    0.0000    0.0000 O   0  0  0  0  0  0  0  0  0  0  0  0
   -0.6444    0.0000    0.0000 C   0  0  0  0  0  0  0  0  0  0  0  0
    0.3771    0.0000    0.0000 C   0  0  0  0  0  0  0  0  0  0  0  0
    1.1921    0.0000    0.0000 N   0  0  0  0  0  0  0  0  0  0  0  0
    1.5658    0.0000    0.0000 C   0  0  0  0  0  0  0  0  0  0  0  0
    2.3625    0.0000    0.0000 C   0  0  0  0  0  0  0  0  0  0  0  0
    2.5752    0.0000    0.0000 C   0  0  0  0  0  0  0  0  0  0  0  0
    1.9912    0.0000    0.0000 C   0  0  0  0  0  0  0  0  0  0  0  0
    1.1945    0.0000    0.0000 C   0  0  0  0  0  0  0  0  0  0  0  0
    0.9819    0.0000    0.0000 C   0  0  0  0  0  0  0  0  0  0  0  0
    0.2471    0.0000    0.0000 C   0  0  0  0  0  0  0  0  0  0  0  0
    0.7657    0.0000    0.0000 C   0  0  0  0  0  0  0  0  0  0  0  0
    0.3156    0.0000    0.0000 C   0  0  0  0  0  0  0  0  0  0  0  0
   -0.6534    0.0000    0.0000 N   0  0  0  0  0  0  0  0  0  0  0  0
   -1.4239    0.0000    0.0000 C   0  0  0  0  0  0  0  0  0  0  0  0
   -2.0645    0.0000    0.0000 C   0  0  0  0  0  0  0  0  0  0  0  0
   -1.9346    0.0000    0.0000 C   0  0  0  0  0  0  0  0  0  0  0  0
   -0.5234    0.0000    0.0000 C   0  0  0  0  0  0  0  0  0  0  0  0
  1  2  1  0      
  2  3  1  0      
  3  4  1  0      
  4  5  1  0      
  5  6  1  0      
  6  7  2  0      
  6  8  1  0      
  8  9  1  0      
  5 10  2  0      
 10 11  1  0      
 11 12  1  0      
 12 13  2  0      
 13 14  1  0      
 14 15  2  0      
 15 16  1  0      
 16 17  2  0      
 12 17  1  0      
 17 18  1  0      
 10 18  1  0      
 18 19  1  0      
 19 20  1  0      
 20 21  1  0      
 21 22  1  0      
 22 23  1  0      
 23 24  2  0      
  3 24  1  0      
 21 25  1  0      
  3 25  1  0      
 18 25  1  0      
M  END
>  <Bioactivity>
Tabersonineis a terpene indole alkaloid found in the medicinal plantCatharanthus roseus.

>  <CAS>
4429-63-4

>  <Col>
10

>  <Formula>
C21H24N2O2

>  <ID>
T3246

>  <Index>
629

>  <MOLENAME>
Tabersonine

>  <MolWt>
336.43

>  <Pathways>
Others

>  <Plate>
PLATE 008

>  <QR code>
1151480433

>  <Receptor>
Others

>  <Reference>
N/A

>  <Row>
G

>  <SMILES>
CCC12CC(C(=O)OC)=C3NC4=CC=CC=C4C33CCN(CC=C1)C23

>  <Target>
Others

>  <Weight>
10.3mg

$$$$
Lab-1.sdf
  ChemDraw05232018482D

 27 31  0  0  0  0  0  0  0  0999 V2000
    2.3796    0.0000    0.0000 C   0  0  0  0  0  0  0  0  0  0  0  0
    2.8875    0.0000    0.0000 C   0  0  0  0  0  0  0  0  0  0  0  0
    2.5785    0.0000    0.0000 C   0  0  0  0  0  0  0  0  0  0  0  0
    2.0265    0.0000    0.0000 C   0  0  0  0  0  0  0  0  0  0  0  0
    2.2814    0.0000    0.0000 C   0  0  0  0  0  0  0  0  0  0  0  0
    3.0884    0.0000    0.0000 C   0  0  0  0  0  0  0  0  0  0  0  0
    3.6404    0.0000    0.0000 O   0  0  0  0  0  0  0  0  0  0  0  0
    3.3855    0.0000    0.0000 C   0  0  0  0  0  0  0  0  0  0  0  0
    3.9375    0.0000    0.0000 O   0  0  0  0  0  0  0  0  0  0  0  0
    1.7294    0.0000    0.0000 C   0  0  0  0  0  0  0  0  0  0  0  0
    1.9843    0.0000    0.0000 O   0  0  0  0  0  0  0  0  0  0  0  0
    0.9224    0.0000    0.0000 N   0  0  0  0  0  0  0  0  0  0  0  0
    0.2549    0.0000    0.0000 C   0  0  0  0  0  0  0  0  0  0  0  0
   -0.4125    0.0000    0.0000 C   0  0  0  0  0  0  0  0  0  0  0  0
   -0.1576    0.0000    0.0000 C   0  0  0  0  0  0  0  0  0  0  0  0
    0.6674    0.0000    0.0000 C   0  0  0  0  0  0  0  0  0  0  0  0
    1.2195    0.0000    0.0000 C   0  0  0  0  0  0  0  0  0  0  0  0
   -0.7096    0.0000    0.0000 N   0  0  0  0  0  0  0  0  0  0  0  0
   -1.5166    0.0000    0.0000 C   0  0  0  0  0  0  0  0  0  0  0  0
   -2.0686    0.0000    0.0000 C   0  0  0  0  0  0  0  0  0  0  0  0
   -2.8756    0.0000    0.0000 C   0  0  0  0  0  0  0  0  0  0  0  0
   -3.1305    0.0000    0.0000 C   0  0  0  0  0  0  0  0  0  0  0  0
   -2.5785    0.0000    0.0000 C   0  0  0  0  0  0  0  0  0  0  0  0
   -1.7715    0.0000    0.0000 C   0  0  0  0  0  0  0  0  0  0  0  0
   -1.2195    0.0000    0.0000 C   0  0  0  0  0  0  0  0  0  0  0  0
   -3.9375    0.0000    0.0000 O   0  0  0  0  0  0  0  0  0  0  0  0
    1.8788    0.0000    0.0000 O   0  0  0  0  0  0  0  0  0  0  0  0
  1  2  1  0      
  2  3  1  0      
  3  4  1  0      
  4  5  2  0      
  5  6  1  0      
  6  7  1  0      
  7  8  1  0      
  3  8  1  0      
  8  9  2  0      
  5 10  1  0      
 10 11  2  0      
 10 12  1  0      
 12 13  1  0      
 13 14  1  0      
 14 15  2  0      
 15 16  1  0      
 12 16  1  0      
 16 17  2  0      
  4 17  1  0      
 15 18  1  0      
 18 19  2  0      
 19 20  1  0      
 20 21  2  0      
 21 22  1  0      
 22 23  2  0      
 23 24  1  0      
 19 24  1  0      
 24 25  2  0      
 14 25  1  0      
 22 26  1  0      
  3 27  1  0      
M  END
>  <Bioactivity>
An alkaloid isolated from the stem wood of the Chinese tree, Camptotheca acuminata. This compound selectively inhibits the nuclear enzyme DNA topoisomerase, type I. Several semisynthetic analogs of ca
mptothecin have demonstrated antitumor activity. 

>  <CAS>
64439-81-2

>  <Col>
11

>  <Formula>
C20H16N2O5

>  <ID>
T1521

>  <Index>
630

>  <MOLENAME>
Hydroxy Camptothecine

>  <MolWt>
364.35

>  <Pathways>
DNA Damage/DNA Repair

>  <Plate>
PLATE 008

>  <QR code>
1151480432

>  <Receptor>
DNA topoisomerase I

>  <Reference>
1. Zhang S, et al. AntiY Drugs. 2014 Jul;25(6):614-23. 

>  <Row>
G

>  <SMILES>
CCC1(C2=C(COC1=O)C(=O)N3CC4=C(C3=C2)N=C5C=CC(=CC5=C4)O)O

>  <Target>
Topoisomerase inhibitor

>  <Weight>
10.1mg

$$$$
Lab-1.sdf
  ChemDraw05232018482D

 21 20  0  0  0  0  0  0  0  0999 V2000
   -5.3583    0.0000    0.0000 C   0  0  0  0  0  0  0  0  0  0  0  0
   -4.6440    0.0000    0.0000 C   0  0  0  0  0  0  0  0  0  0  0  0
   -4.6440    0.0000    0.0000 C   0  0  0  0  0  0  0  0  0  0  0  0
   -3.9295    0.0000    0.0000 C   0  0  0  0  0  0  0  0  0  0  0  0
   -3.2150    0.0000    0.0000 C   0  0  0  0  0  0  0  0  0  0  0  0
   -2.5006    0.0000    0.0000 C   0  0  0  0  0  0  0  0  0  0  0  0
   -1.7861    0.0000    0.0000 C   0  0  0  0  0  0  0  0  0  0  0  0
   -1.7861    0.0000    0.0000 C   0  0  0  0  0  0  0  0  0  0  0  0
   -1.0717    0.0000    0.0000 C   0  0  0  0  0  0  0  0  0  0  0  0
   -0.3572    0.0000    0.0000 C   0  0  0  0  0  0  0  0  0  0  0  0
    0.3572    0.0000    0.0000 C   0  0  0  0  0  0  0  0  0  0  0  0
    1.0717    0.0000    0.0000 C   0  0  0  0  0  0  0  0  0  0  0  0
    1.0717    0.0000    0.0000 C   0  0  0  0  0  0  0  0  0  0  0  0
    1.7861    0.0000    0.0000 C   0  0  0  0  0  0  0  0  0  0  0  0
    2.5005    0.0000    0.0000 C   0  0  0  0  0  0  0  0  0  0  0  0
    3.2150    0.0000    0.0000 C   0  0  0  0  0  0  0  0  0  0  0  0
    3.9295    0.0000    0.0000 C   0  0  0  0  0  0  0  0  0  0  0  0
    3.9295    0.0000    0.0000 C   0  0  0  0  0  0  0  0  0  0  0  0
    4.6440    0.0000    0.0000 C   0  0  0  0  0  0  0  0  0  0  0  0
    5.3583    0.0000    0.0000 C   0  0  0  0  0  0  0  0  0  0  0  0
    5.3583    0.0000    0.0000 O   0  0  0  0  0  0  0  0  0  0  0  0
  1  2  1  0      
  2  3  1  0      
  2  4  1  0      
  4  5  1  0      
  5  6  1  0      
  6  7  1  0      
  7  8  1  0      
  7  9  1  0      
  9 10  1  0      
 10 11  1  0      
 11 12  1  0      
 12 13  1  0      
 12 14  1  0      
 14 15  1  0      
 15 16  1  0      
 16 17  1  0      
 17 18  1  0      
 17 19  2  0      
 19 20  1  4      
 20 21  1  0      
M  END
>  <Bioactivity>
Phytol is an acyclic diterpene alcohol that can be used as a precursor for the manufacture of synthetic forms of vitamin E and vitamin K1.

>  <CAS>
150-86-7

>  <Col>
2

>  <Formula>
C20H40O

>  <ID>
T3254

>  <Index>
631

>  <MOLENAME>
PHYTOL

>  <MolWt>
296.54

>  <Pathways>
Others

>  <Plate>
PLATE 008

>  <QR code>
1151480420

>  <Receptor>
Others

>  <Reference>
1. Daines, Alison. Current Organic Chemistry. 7 (16): 1625?34.

>  <Row>
H

>  <SMILES>
CC(C)CCCC(C)CCCC(C)CCCC(C)=CCO

>  <Target>
Others

>  <Weight>
10.3mg

$$$$
Lab-1.sdf
  ChemDraw05232018482D

 31 30  0  0  0  0  0  0  0  0999 V2000
  -10.7168    0.0000    0.0000 C   0  0  0  0  0  0  0  0  0  0  0  0
  -10.0023    0.0000    0.0000 C   0  0  0  0  0  0  0  0  0  0  0  0
   -9.2878    0.0000    0.0000 C   0  0  0  0  0  0  0  0  0  0  0  0
   -8.5734    0.0000    0.0000 C   0  0  0  0  0  0  0  0  0  0  0  0
   -7.8590    0.0000    0.0000 C   0  0  0  0  0  0  0  0  0  0  0  0
   -7.1445    0.0000    0.0000 C   0  0  0  0  0  0  0  0  0  0  0  0
   -6.4300    0.0000    0.0000 C   0  0  0  0  0  0  0  0  0  0  0  0
   -5.7156    0.0000    0.0000 C   0  0  0  0  0  0  0  0  0  0  0  0
   -5.0012    0.0000    0.0000 C   0  0  0  0  0  0  0  0  0  0  0  0
   -4.2867    0.0000    0.0000 C   0  0  0  0  0  0  0  0  0  0  0  0
   -3.5723    0.0000    0.0000 C   0  0  0  0  0  0  0  0  0  0  0  0
   -2.8578    0.0000    0.0000 C   0  0  0  0  0  0  0  0  0  0  0  0
   -2.1433    0.0000    0.0000 C   0  0  0  0  0  0  0  0  0  0  0  0
   -1.4289    0.0000    0.0000 C   0  0  0  0  0  0  0  0  0  0  0  0
   -0.7145    0.0000    0.0000 C   0  0  0  0  0  0  0  0  0  0  0  0
   -0.0000    0.0000    0.0000 C   0  0  0  0  0  0  0  0  0  0  0  0
    0.7145    0.0000    0.0000 C   0  0  0  0  0  0  0  0  0  0  0  0
    1.4289    0.0000    0.0000 C   0  0  0  0  0  0  0  0  0  0  0  0
    2.1433    0.0000    0.0000 C   0  0  0  0  0  0  0  0  0  0  0  0
    2.8578    0.0000    0.0000 C   0  0  0  0  0  0  0  0  0  0  0  0
    3.5722    0.0000    0.0000 C   0  0  0  0  0  0  0  0  0  0  0  0
    4.2867    0.0000    0.0000 C   0  0  0  0  0  0  0  0  0  0  0  0
    5.0012    0.0000    0.0000 C   0  0  0  0  0  0  0  0  0  0  0  0
    5.7156    0.0000    0.0000 C   0  0  0  0  0  0  0  0  0  0  0  0
    6.4300    0.0000    0.0000 C   0  0  0  0  0  0  0  0  0  0  0  0
    7.1445    0.0000    0.0000 C   0  0  0  0  0  0  0  0  0  0  0  0
    7.8590    0.0000    0.0000 C   0  0  0  0  0  0  0  0  0  0  0  0
    8.5733    0.0000    0.0000 C   0  0  0  0  0  0  0  0  0  0  0  0
    9.2878    0.0000    0.0000 C   0  0  0  0  0  0  0  0  0  0  0  0
   10.0023    0.0000    0.0000 C   0  0  0  0  0  0  0  0  0  0  0  0
   10.7168    0.0000    0.0000 O   0  0  0  0  0  0  0  0  0  0  0  0
  1  2  1  0      
  2  3  1  0      
  3  4  1  0      
  4  5  1  0      
  5  6  1  0      
  6  7  1  0      
  7  8  1  0      
  8  9  1  0      
  9 10  1  0      
 10 11  1  0      
 11 12  1  0      
 12 13  1  0      
 13 14  1  0      
 14 15  1  0      
 15 16  1  0      
 16 17  1  0      
 17 18  1  0      
 18 19  1  0      
 19 20  1  0      
 20 21  1  0      
 21 22  1  0      
 22 23  1  0      
 23 24  1  0      
 24 25  1  0      
 25 26  1  0      
 26 27  1  0      
 27 28  1  0      
 28 29  1  0      
 29 30  1  0      
 30 31  1  0      
M  END
>  <Bioactivity>
1-Triacontanolis afatty alcoholof the general formula C30H62O, also known asmelissyl alcoholormyricyl alcohol. It is found in plantcuticle waxesand inbeeswax. Triacontanol is agrowth stimulantfor many
 plants, most notablyroses, in which it rapidly increases the number of basal breaks.

>  <CAS>
28351-05-5

>  <Col>
3

>  <Formula>
C30H62O

>  <ID>
T3252

>  <Index>
632

>  <MOLENAME>
Triacontanol

>  <MolWt>
438.82

>  <Pathways>
Others

>  <Plate>
PLATE 008

>  <QR code>
1151480421

>  <Receptor>
Others

>  <Reference>
1. Li X, et al. Bioorg Med Chem Lett. 2011, 21(18):5251-4.Triacontanol Reduces Transplanting Shock in Machine-Transplanted Rice by Improving the Growth and Antioxidant Systems. Front Plant Sci. 2016 J
un 17;7:872.

>  <Row>
H

>  <SMILES>
CCCCCCCCCCCCCCCCCCCCCCCCCCCCCCO

>  <Target>
Others

>  <Weight>
10.1mg

$$$$
Lab-1.sdf
  ChemDraw05232018482D

 17 16  0  0  0  0  0  0  0  0999 V2000
   -1.7861    0.0000    0.0000 Na  0  3  0  0  0  0  0  0  0  0  0  0
   -0.3572    0.0000    0.0000 O   0  0  0  0  0  0  0  0  0  0  0  0
    0.3572    0.0000    0.0000 C   0  0  0  0  0  0  0  0  0  0  0  0
    0.3572    0.0000    0.0000 C   0  0  0  0  0  0  0  0  0  0  0  0
    1.0716    0.0000    0.0000 O   0  0  0  0  0  0  0  0  0  0  0  0
    1.0716    0.0000    0.0000 C   0  0  0  0  0  0  0  0  0  0  0  0
    1.7861    0.0000    0.0000 O   0  0  0  0  0  0  0  0  0  0  0  0
    0.3572    0.0000    0.0000 C   0  0  0  0  0  0  0  0  0  0  0  0
    0.3572    0.0000    0.0000 N   0  0  0  0  0  0  0  0  0  0  0  0
   -0.3572    0.0000    0.0000 S   0  0  0  0  0  0  0  0  0  0  0  0
   -1.0717    0.0000    0.0000 O   0  5  0  0  0  0  0  0  0  0  0  0
    0.0552    0.0000    0.0000 O   0  0  0  0  0  0  0  0  0  0  0  0
   -0.7697    0.0000    0.0000 O   0  0  0  0  0  0  0  0  0  0  0  0
   -0.3572    0.0000    0.0000 C   0  0  0  0  0  0  0  0  0  0  0  0
   -1.0717    0.0000    0.0000 O   0  0  0  0  0  0  0  0  0  0  0  0
   -0.3572    0.0000    0.0000 C   0  0  0  0  0  0  0  0  0  0  0  0
   -1.0717    0.0000    0.0000 O   0  0  0  0  0  0  0  0  0  0  0  0
  2  3  1  0      
  3  4  1  0      
  4  5  1  0      
  5  6  1  0      
  6  7  1  0      
  6  8  1  0      
  8  9  1  0      
  9 10  1  0      
 10 11  1  0      
 10 12  2  0      
 10 13  2  0      
  8 14  1  0      
 14 15  1  0      
 14 16  1  0      
  4 16  1  0      
 16 17  1  0      
M  CHG  2   1   1  11  -1
M  END
>  <Bioactivity>
It is possible to effect reaction at arthritis

>  <CAS>
38899-05-7

>  <Col>
4

>  <Formula>
C6H12NNaO8S

>  <ID>
T3244

>  <Index>
633

>  <MOLENAME>
N-Sulfo-glucosamine sodium salt

>  <MolWt>
281.22

>  <Pathways>
Others

>  <Plate>
PLATE 008

>  <QR code>
1151480422

>  <Receptor>
Others

>  <Reference>
N/A

>  <Row>
H

>  <SMILES>
[Na+].OCC1OC(O)C(NS([O-])(=O)=O)C(O)C1O

>  <Target>
Others

>  <Weight>
10.2mg

$$$$
Lab-1.sdf
  ChemDraw05232018482D

 32 35  0  0  0  0  0  0  0  0999 V2000
   -3.9295    0.0000    0.0000 O   0  0  0  0  0  0  0  0  0  0  0  0
   -3.2151    0.0000    0.0000 C   0  0  0  0  0  0  0  0  0  0  0  0
   -3.2151    0.0000    0.0000 C   0  0  0  0  0  0  0  0  0  0  0  0
   -3.9295    0.0000    0.0000 O   0  0  0  0  0  0  0  0  0  0  0  0
   -2.5006    0.0000    0.0000 C   0  0  0  0  0  0  0  0  0  0  0  0
   -2.5006    0.0000    0.0000 O   0  0  0  0  0  0  0  0  0  0  0  0
   -1.7861    0.0000    0.0000 C   0  0  0  0  0  0  0  0  0  0  0  0
   -1.7861    0.0000    0.0000 C   0  0  0  0  0  0  0  0  0  0  0  0
   -1.0717    0.0000    0.0000 C   0  0  0  0  0  0  0  0  0  0  0  0
   -1.0717    0.0000    0.0000 O   0  0  0  0  0  0  0  0  0  0  0  0
   -0.3572    0.0000    0.0000 C   0  0  0  0  0  0  0  0  0  0  0  0
    0.3572    0.0000    0.0000 C   0  0  0  0  0  0  0  0  0  0  0  0
    0.3572    0.0000    0.0000 O   0  0  0  0  0  0  0  0  0  0  0  0
    1.0717    0.0000    0.0000 C   0  0  0  0  0  0  0  0  0  0  0  0
    1.0717    0.0000    0.0000 C   0  0  0  0  0  0  0  0  0  0  0  0
    0.3572    0.0000    0.0000 O   0  0  0  0  0  0  0  0  0  0  0  0
   -0.3572    0.0000    0.0000 C   0  0  0  0  0  0  0  0  0  0  0  0
   -1.0717    0.0000    0.0000 C   0  0  0  0  0  0  0  0  0  0  0  0
    1.7861    0.0000    0.0000 C   0  0  0  0  0  0  0  0  0  0  0  0
    2.5006    0.0000    0.0000 C   0  0  0  0  0  0  0  0  0  0  0  0
    3.2151    0.0000    0.0000 C   0  0  0  0  0  0  0  0  0  0  0  0
    3.2151    0.0000    0.0000 C   0  0  0  0  0  0  0  0  0  0  0  0
    3.9295    0.0000    0.0000 O   0  0  0  0  0  0  0  0  0  0  0  0
    2.5006    0.0000    0.0000 C   0  0  0  0  0  0  0  0  0  0  0  0
    1.7861    0.0000    0.0000 C   0  0  0  0  0  0  0  0  0  0  0  0
   -1.7861    0.0000    0.0000 O   0  0  0  0  0  0  0  0  0  0  0  0
   -1.7861    0.0000    0.0000 C   0  0  0  0  0  0  0  0  0  0  0  0
   -2.5006    0.0000    0.0000 C   0  0  0  0  0  0  0  0  0  0  0  0
   -2.5006    0.0000    0.0000 O   0  0  0  0  0  0  0  0  0  0  0  0
   -1.0717    0.0000    0.0000 C   0  0  0  0  0  0  0  0  0  0  0  0
   -1.0717    0.0000    0.0000 O   0  0  0  0  0  0  0  0  0  0  0  0
   -0.3572    0.0000    0.0000 O   0  0  0  0  0  0  0  0  0  0  0  0
  1  2  1  0      
  2  3  1  0      
  3  4  1  0      
  3  5  1  0      
  5  6  1  0      
  6  7  1  0      
  7  8  2  0      
  8  9  1  0      
  9 10  1  0      
  9 11  2  0      
 11 12  1  0      
 12 13  2  0      
 12 14  1  0      
 14 15  2  0      
 15 16  1  0      
 16 17  1  0      
 11 17  1  0      
 17 18  2  0      
  7 18  1  0      
 15 19  1  0      
 19 20  2  0      
 20 21  1  0      
 21 22  2  0      
 22 23  1  0      
 22 24  1  0      
 24 25  2  0      
 19 25  1  0      
  5 26  1  0      
 26 27  1  0      
 27 28  1  0      
  2 28  1  0      
 28 29  1  0      
 27 30  1  0      
 30 31  1  0      
 30 32  2  0      
M  END
>  <Bioactivity>
Breviscapine, is the total flavonoid components (the content of scutellarin > or =85%) extracted from the dried whole plant of Erigeron breviscapus

>  <CAS>
116122-36-2

>  <Col>
5

>  <Formula>
C21H18O11

>  <ID>
T3242

>  <Index>
634

>  <MOLENAME>
Breviscapin

>  <MolWt>
908.723

>  <Pathways>
Others

>  <Plate>
PLATE 008

>  <QR code>
1151480423

>  <Receptor>
Others

>  <Reference>
1. Xia H, et al. Biol Pharm Bull. 2007 Jul;30(7):1308-16.

>  <Row>
H

>  <SMILES>
OC1C(O)C(OC2=CC(O)=C3C(=O)C=C(OC3=C2)C2=CC=C(O)C=C2)OC(C1O)C(O)=O

>  <Target>
Others

>  <Weight>
9.9mg

$$$$
Lab-1.sdf
  ChemDraw05232018482D

 11 10  0  0  0  0  0  0  0  0999 V2000
   -0.7145    0.0000    0.0000 C   0  0  0  0  0  0  0  0  0  0  0  0
   -0.7145    0.0000    0.0000 C   0  0  0  0  0  0  0  0  0  0  0  0
   -1.4289    0.0000    0.0000 C   0  0  0  0  0  0  0  0  0  0  0  0
   -2.1433    0.0000    0.0000 C   0  0  0  0  0  0  0  0  0  0  0  0
   -2.8578    0.0000    0.0000 O   0  0  0  0  0  0  0  0  0  0  0  0
   -0.0000    0.0000    0.0000 C   0  0  0  0  0  0  0  0  0  0  0  0
    0.7145    0.0000    0.0000 C   0  0  0  0  0  0  0  0  0  0  0  0
    1.4290    0.0000    0.0000 C   0  0  0  0  0  0  0  0  0  0  0  0
    2.1433    0.0000    0.0000 C   0  0  0  0  0  0  0  0  0  0  0  0
    2.8578    0.0000    0.0000 C   0  0  0  0  0  0  0  0  0  0  0  0
    2.1433    0.0000    0.0000 C   0  0  0  0  0  0  0  0  0  0  0  0
  1  2  1  0      
  2  3  1  0      
  3  4  1  0      
  4  5  1  0      
  2  6  1  0      
  6  7  1  0      
  7  8  1  0      
  8  9  2  0      
  9 10  1  0      
  9 11  1  0      
M  END
>  <Bioactivity>
Citronellol is used in perfumes and insect repellents,and as a mite attractant.

>  <CAS>
106-22-9

>  <Col>
6

>  <Formula>
C10H20O

>  <ID>
T3240

>  <Index>
635

>  <MOLENAME>
Citronellol

>  <MolWt>
156.27

>  <Pathways>
Others

>  <Plate>
PLATE 008

>  <QR code>
1151480424

>  <Receptor>
Others

>  <Reference>
1. Taylor WG, Schreck CE. (1985). J Pharm Sci. 74 (5): 534?539.

>  <Row>
H

>  <SMILES>
CC(CCO)CCC=C(C)C

>  <Target>
Others

>  <Weight>
10.3mg

$$$$
Lab-1.sdf
  ChemDraw05232018482D

 13 12  0  0  0  0  0  0  0  0999 V2000
   -3.9295    0.0000    0.0000 O   0  0  0  0  0  0  0  0  0  0  0  0
   -3.2150    0.0000    0.0000 C   0  0  0  0  0  0  0  0  0  0  0  0
   -2.5005    0.0000    0.0000 C   0  0  0  0  0  0  0  0  0  0  0  0
   -1.7861    0.0000    0.0000 C   0  0  0  0  0  0  0  0  0  0  0  0
   -1.0717    0.0000    0.0000 C   0  0  0  0  0  0  0  0  0  0  0  0
   -0.3572    0.0000    0.0000 C   0  0  0  0  0  0  0  0  0  0  0  0
    0.3573    0.0000    0.0000 C   0  0  0  0  0  0  0  0  0  0  0  0
    1.0717    0.0000    0.0000 C   0  0  0  0  0  0  0  0  0  0  0  0
    1.7861    0.0000    0.0000 C   0  0  0  0  0  0  0  0  0  0  0  0
    2.5006    0.0000    0.0000 C   0  0  0  0  0  0  0  0  0  0  0  0
    3.2150    0.0000    0.0000 C   0  0  0  0  0  0  0  0  0  0  0  0
    3.2150    0.0000    0.0000 O   0  0  0  0  0  0  0  0  0  0  0  0
    3.9295    0.0000    0.0000 O   0  0  0  0  0  0  0  0  0  0  0  0
  1  2  1  0      
  2  3  1  0      
  3  4  1  0      
  4  5  1  0      
  5  6  1  0      
  6  7  1  0      
  7  8  1  0      
  9  8  1  4      
  9 10  2  0      
 10 11  1  0      
 11 12  1  0      
 11 13  2  0      
M  END
>  <Bioactivity>
10-HAD promotes neurogenesis of neural stem/progenitor cells (cells capable of differentiating into neurons, astrocytes, or oligodendrocytes)in vitroand could provide an effective method to treat and 
prevent neurological disorders.

>  <CAS>
14113-05-4

>  <Col>
7

>  <Formula>
C10H18O3

>  <ID>
T3250

>  <Index>
636

>  <MOLENAME>
10-Hydroxy-2-decenoic acid

>  <MolWt>
186.25

>  <Pathways>
Others

>  <Plate>
PLATE 008

>  <QR code>
1151480425

>  <Receptor>
Others

>  <Reference>
1. Yang XH, et al. Comparative proteomic analysis provides insight into 10-hydroxy-2-decenoic acid biosynthesis in honey bee workers. Amino Acids. 2017 Apr 17.

>  <Row>
H

>  <SMILES>
OCCCCCCCC=CC(O)=O

>  <Target>
Others

>  <Weight>
10.1mg

$$$$
Lab-1.sdf
  ChemDraw05232018482D

 11 11  0  0  0  0  0  0  0  0999 V2000
   -0.3572    0.0000    0.0000 C   0  0  0  0  0  0  0  0  0  0  0  0
    0.3573    0.0000    0.0000 C   0  0  0  0  0  0  0  0  0  0  0  0
    1.0717    0.0000    0.0000 C   0  0  0  0  0  0  0  0  0  0  0  0
    0.3573    0.0000    0.0000 C   0  0  0  0  0  0  0  0  0  0  0  0
    1.0717    0.0000    0.0000 C   0  0  0  0  0  0  0  0  0  0  0  0
    1.0717    0.0000    0.0000 C   0  0  0  0  0  0  0  0  0  0  0  0
    0.3573    0.0000    0.0000 C   0  0  0  0  0  0  0  0  0  0  0  0
    0.3573    0.0000    0.0000 C   0  0  0  0  0  0  0  0  0  0  0  0
   -0.3572    0.0000    0.0000 C   0  0  0  0  0  0  0  0  0  0  0  0
   -1.0717    0.0000    0.0000 O   0  0  0  0  0  0  0  0  0  0  0  0
   -0.3572    0.0000    0.0000 C   0  0  0  0  0  0  0  0  0  0  0  0
  1  2  1  0      
  2  3  2  0      
  2  4  1  0      
  4  5  1  0      
  5  6  1  0      
  6  7  2  0      
  7  8  1  0      
  7  9  1  0      
  9 10  2  0      
  9 11  1  0      
  4 11  1  0      
M  END
>  <Bioactivity>
(S)-(+)-Carvone is main consitituent of  caraway oil and pineapple seed oil 

>  <CAS>
2244-16-8

>  <Col>
8

>  <Formula>
C10H14O

>  <ID>
T3245

>  <Index>
637

>  <MOLENAME>
(S)-(+)-Carvone

>  <MolWt>
150.22

>  <Pathways>
Others

>  <Plate>
PLATE 008

>  <QR code>
1151480426

>  <Receptor>
Others

>  <Reference>
1. Chen D, et al. A Concise, Efficient and Scalable Total Synthesis of Thapsigargin and Nortrilobolide from (R)-(-)-Carvone. J Am Chem Soc. 2017 May 3;139(17):6046-6049.

>  <Row>
H

>  <SMILES>
CC(=C)C1CC=C(C)C(=O)C1

>  <Target>
Others

>  <Weight>
9.9mg

$$$$
Lab-1.sdf
  ChemDraw05232018482D

 11 10  0  0  0  0  0  0  0  0999 V2000
   -2.3091    0.0000    0.0000 Cl  0  5  0  0  0  0  0  0  0  0  0  0
    2.1937    0.0000    0.0000 C   0  0  0  0  0  0  0  0  0  0  0  0
    1.6417    0.0000    0.0000 N   0  3  0  0  0  0  0  0  0  0  0  0
    1.0896    0.0000    0.0000 C   0  0  0  0  0  0  0  0  0  0  0  0
    2.3091    0.0000    0.0000 C   0  0  0  0  0  0  0  0  0  0  0  0
    2.0542    0.0000    0.0000 C   0  0  0  0  0  0  0  0  0  0  0  0
    1.2292    0.0000    0.0000 C   0  0  0  0  0  0  0  0  0  0  0  0
    0.9742    0.0000    0.0000 C   0  0  0  0  0  0  0  0  0  0  0  0
    0.1896    0.0000    0.0000 C   0  0  0  0  0  0  0  0  0  0  0  0
   -0.4234    0.0000    0.0000 O   0  0  0  0  0  0  0  0  0  0  0  0
    0.0181    0.0000    0.0000 O   0  0  0  0  0  0  0  0  0  0  0  0
  2  3  1  0      
  3  4  1  0      
  3  5  1  0      
  5  6  1  0      
  6  7  1  0      
  7  8  1  0      
  3  8  1  0      
  8  9  1  0      
  9 10  1  0      
  9 11  2  0      
M  CHG  2   1  -1   3   1
M  END
>  <Bioactivity>
STACHYDRINE HYDROCHLORIDE is a effective components that mainly extracted from the leaf of Leonurussibiricus. Its function include promoting blood circulation for regulating menstruation, inducing diu
resis to reduce edema and contracting uterus.

>  <CAS>
4136-37-2

>  <Col>
9

>  <Formula>
C7H14ClNO2

>  <ID>
T3251

>  <Index>
638

>  <MOLENAME>
Stachydrine Hydrochloride

>  <MolWt>
179.64

>  <Pathways>
Others

>  <Plate>
PLATE 008

>  <QR code>
1151480427

>  <Receptor>
Others

>  <Reference>
1. Zhao L, et al. Stachydrine ameliorates isoproterenol-induced cardiac hypertrophy and fibrosis by suppressing inflammation and oxidative stress through inhibiting NF-¦ÊB and JAK/STAT signaling pathw
ays in rats. Int Immunopharmacol. 2017 May 9;48:102-109.

>  <Row>
H

>  <SMILES>
[Cl-].C[N+]1(C)CCCC1C(O)=O

>  <Target>
Others

>  <Weight>
10.3mg

$$$$
Lab-1.sdf
  ChemDraw05232018482D

 33 37  0  0  0  0  0  0  0  0999 V2000
   -3.9787    0.0000    0.0000 C   0  0  0  0  0  0  0  0  0  0  0  0
   -3.2034    0.0000    0.0000 C   0  0  0  0  0  0  0  0  0  0  0  0
   -3.0602    0.0000    0.0000 C   0  0  0  0  0  0  0  0  0  0  0  0
   -3.6159    0.0000    0.0000 C   0  0  0  0  0  0  0  0  0  0  0  0
   -3.2034    0.0000    0.0000 C   0  0  0  0  0  0  0  0  0  0  0  0
   -2.3784    0.0000    0.0000 C   0  0  0  0  0  0  0  0  0  0  0  0
   -2.7909    0.0000    0.0000 C   0  0  0  0  0  0  0  0  0  0  0  0
   -1.9659    0.0000    0.0000 C   0  0  0  0  0  0  0  0  0  0  0  0
   -1.1409    0.0000    0.0000 C   0  0  0  0  0  0  0  0  0  0  0  0
   -0.7284    0.0000    0.0000 C   0  0  0  0  0  0  0  0  0  0  0  0
   -0.3159    0.0000    0.0000 C   0  0  0  0  0  0  0  0  0  0  0  0
   -1.1409    0.0000    0.0000 C   0  0  0  0  0  0  0  0  0  0  0  0
   -0.7284    0.0000    0.0000 C   0  0  0  0  0  0  0  0  0  0  0  0
    0.0965    0.0000    0.0000 C   0  0  0  0  0  0  0  0  0  0  0  0
    0.5090    0.0000    0.0000 C   0  0  0  0  0  0  0  0  0  0  0  0
    1.3340    0.0000    0.0000 C   0  0  0  0  0  0  0  0  0  0  0  0
    0.9215    0.0000    0.0000 C   0  0  0  0  0  0  0  0  0  0  0  0
    1.7465    0.0000    0.0000 C   0  0  0  0  0  0  0  0  0  0  0  0
    2.5715    0.0000    0.0000 C   0  0  0  0  0  0  0  0  0  0  0  0
    2.9840    0.0000    0.0000 C   0  0  0  0  0  0  0  0  0  0  0  0
    3.8090    0.0000    0.0000 O   0  0  0  0  0  0  0  0  0  0  0  0
    2.5715    0.0000    0.0000 C   0  0  0  0  0  0  0  0  0  0  0  0
    2.4282    0.0000    0.0000 C   0  0  0  0  0  0  0  0  0  0  0  0
    1.7465    0.0000    0.0000 C   0  0  0  0  0  0  0  0  0  0  0  0
    1.3340    0.0000    0.0000 C   0  0  0  0  0  0  0  0  0  0  0  0
    0.5090    0.0000    0.0000 C   0  0  0  0  0  0  0  0  0  0  0  0
    0.0965    0.0000    0.0000 C   0  0  0  0  0  0  0  0  0  0  0  0
    0.1827    0.0000    0.0000 C   0  0  0  0  0  0  0  0  0  0  0  0
    3.3467    0.0000    0.0000 C   0  0  0  0  0  0  0  0  0  0  0  0
    3.9787    0.0000    0.0000 O   0  0  0  0  0  0  0  0  0  0  0  0
    3.4900    0.0000    0.0000 O   0  0  0  0  0  0  0  0  0  0  0  0
   -1.9659    0.0000    0.0000 C   0  0  0  0  0  0  0  0  0  0  0  0
   -2.3784    0.0000    0.0000 C   0  0  0  0  0  0  0  0  0  0  0  0
  1  2  1  0      
  2  3  1  0      
  2  4  1  0      
  4  5  1  0      
  5  6  1  0      
  6  7  1  0      
  6  8  1  0      
  8  9  1  0      
  9 10  1  0      
 10 11  1  0      
 10 12  1  0      
 12 13  2  0      
 13 14  1  0      
 14 15  1  0      
 15 16  1  0      
 16 17  1  0      
 16 18  1  0      
 18 19  1  0      
 19 20  1  0      
 20 21  1  0      
 20 22  1  0      
 22 23  1  0      
 22 24  1  0      
 16 24  1  0      
 24 25  1  0      
 25 26  1  0      
 26 27  1  0      
 10 27  1  0      
 15 27  1  0      
 27 28  1  0      
 22 29  1  0      
 29 30  1  0      
 29 31  2  0      
 12 32  1  0      
  6 32  1  0      
 32 33  1  0      
  2 33  1  0      
M  END
>  <Bioactivity>
Boswellic acidsare a series of pentacyclictriterpenemolecules that are produced by plants in the genusBoswellia.

>  <CAS>
471-66-9

>  <Col>
10

>  <Formula>
C30H48O3

>  <ID>
T3248

>  <Index>
639

>  <MOLENAME>
ALPHA-BOSWELLIC ACID

>  <MolWt>
456.7

>  <Pathways>
Others

>  <Plate>
PLATE 008

>  <QR code>
1151480428

>  <Receptor>
Others

>  <Reference>
1. Fathi E, et al. The Effects of Alpha Boswellic Acid on Reelin Expression and Tau Phosphorylation in Human Astrocytes. Neuromolecular Med. 2017 Mar;19(1):136-146.

>  <Row>
H

>  <SMILES>
CC1(C)CCC2(C)CCC3(C)C(=CCC4C5(C)CCC(O)C(C)(C5CCC34C)C(O)=O)C2C1

>  <Target>
Others

>  <Weight>
10.3mg

$$$$
Lab-1.sdf
  ChemDraw05232018482D

 10 10  0  0  0  0  0  0  0  0999 V2000
   -0.7144    0.0000    0.0000 C   0  0  0  0  0  0  0  0  0  0  0  0
    0.0000    0.0000    0.0000 C   0  0  0  0  0  0  0  0  0  0  0  0
    0.7144    0.0000    0.0000 C   0  0  0  0  0  0  0  0  0  0  0  0
    0.0000    0.0000    0.0000 C   0  0  0  0  0  0  0  0  0  0  0  0
    0.7144    0.0000    0.0000 C   0  0  0  0  0  0  0  0  0  0  0  0
    0.7144    0.0000    0.0000 C   0  0  0  0  0  0  0  0  0  0  0  0
    0.0000    0.0000    0.0000 C   0  0  0  0  0  0  0  0  0  0  0  0
    0.0000    0.0000    0.0000 C   0  0  0  0  0  0  0  0  0  0  0  0
   -0.7144    0.0000    0.0000 C   0  0  0  0  0  0  0  0  0  0  0  0
   -0.7144    0.0000    0.0000 C   0  0  0  0  0  0  0  0  0  0  0  0
  1  2  1  0      
  2  3  2  0      
  2  4  1  0      
  4  5  1  0      
  5  6  1  0      
  6  7  1  0      
  7  8  1  0      
  7  9  2  0      
  9 10  1  0      
  4 10  1  0      
M  END
>  <Bioactivity>
Limonene has good antitussive, expectorant and bacteriostatic effects.

>  <CAS>
5989-27-5

>  <Col>
11

>  <Formula>
C10H16

>  <ID>
T3241

>  <Index>
640

>  <MOLENAME>
(R)-(+)-Limonene

>  <MolWt>
136.23404

>  <Pathways>
Others

>  <Plate>
PLATE 008

>  <QR code>
1151480429

>  <Receptor>
Others

>  <Reference>
1. Keskin I, et al. Effects of Foeniculum vulgare essential oil compounds, fenchone and limonene, on experimental wound healing. Biotech Histochem. 2017 Apr 20:1-9.

>  <Row>
H

>  <SMILES>
CC(=C)C1CCC(C)=CC1

>  <Target>
Others

>  <Weight>
10.3mg

$$$$
Lab-1.sdf
  ChemDraw05232018482D

 17 16  0  0  0  0  0  0  0  0999 V2000
    3.7124    0.0000    0.0000 C   0  0  0  0  0  0  0  0  0  0  0  0
    2.8874    0.0000    0.0000 C   0  0  0  0  0  0  0  0  0  0  0  0
    2.4749    0.0000    0.0000 C   0  0  0  0  0  0  0  0  0  0  0  0
    2.8874    0.0000    0.0000 C   0  0  0  0  0  0  0  0  0  0  0  0
    1.6499    0.0000    0.0000 C   0  0  0  0  0  0  0  0  0  0  0  0
    1.2375    0.0000    0.0000 O   0  0  0  0  0  0  0  0  0  0  0  0
    1.2375    0.0000    0.0000 O   0  0  0  0  0  0  0  0  0  0  0  0
    0.4125    0.0000    0.0000 C   0  0  0  0  0  0  0  0  0  0  0  0
    0.0000    0.0000    0.0000 C   0  0  0  0  0  0  0  0  0  0  0  0
   -0.8250    0.0000    0.0000 C   0  0  0  0  0  0  0  0  0  0  0  0
   -1.2375    0.0000    0.0000 C   0  0  0  0  0  0  0  0  0  0  0  0
   -1.2375    0.0000    0.0000 C   0  0  0  0  0  0  0  0  0  0  0  0
   -2.0624    0.0000    0.0000 C   0  0  0  0  0  0  0  0  0  0  0  0
   -2.4749    0.0000    0.0000 C   0  0  0  0  0  0  0  0  0  0  0  0
   -3.2999    0.0000    0.0000 C   0  0  0  0  0  0  0  0  0  0  0  0
   -3.7124    0.0000    0.0000 C   0  0  0  0  0  0  0  0  0  0  0  0
   -3.7124    0.0000    0.0000 C   0  0  0  0  0  0  0  0  0  0  0  0
  2  1  1  4      
  2  3  2  0      
  3  4  1  0      
  3  5  1  0      
  5  6  2  0      
  5  7  1  0      
  7  8  1  0      
  9  8  1  4      
  9 10  2  0      
 10 11  1  0      
 10 12  1  0      
 12 13  1  0      
 13 14  1  0      
 14 15  2  0      
 15 16  1  0      
 15 17  1  0      
M  END
>  <Bioactivity>
Geranium oil is one of the most important  natural perfume 

>  <CAS>
8000-46-2

>  <Col>
2

>  <Formula>
N/A

>  <ID>
T3239

>  <Index>
641

>  <MOLENAME>
Geranium oil

>  <MolWt>
N/A

>  <Pathways>
Others

>  <Plate>
PLATE 009

>  <QR code>
1151480897

>  <Receptor>
Others

>  <Reference>
1. Sienkiewicz M, et al. The antibacterial activity of geranium oil against Gram-negative bacteria isolated from difficult-to-heal wounds. Burns. 2014 Aug;40(5):1046-51.

>  <Row>
A

>  <SMILES>
CC=C(C)C(=O)(OCC=C(C)CCC=C(C)C)

>  <Target>
Others

>  <Weight>
10.3mg

$$$$
Lab-1.sdf
  ChemDraw05232018482D

 66 65  0  0  0  0  0  0  0  0999 V2000
  -14.2890    0.0000    0.0000 C   0  0  0  0  0  0  0  0  0  0  0  0
  -13.5745    0.0000    0.0000 C   0  0  0  0  0  0  0  0  0  0  0  0
  -12.8601    0.0000    0.0000 C   0  0  0  0  0  0  0  0  0  0  0  0
  -12.1457    0.0000    0.0000 C   0  0  0  0  0  0  0  0  0  0  0  0
  -11.4312    0.0000    0.0000 C   0  0  0  0  0  0  0  0  0  0  0  0
  -10.7167    0.0000    0.0000 C   0  0  0  0  0  0  0  0  0  0  0  0
  -10.0022    0.0000    0.0000 C   0  0  0  0  0  0  0  0  0  0  0  0
  -10.0022    0.0000    0.0000 O   0  0  0  0  0  0  0  0  0  0  0  0
   -9.2879    0.0000    0.0000 C   0  0  0  0  0  0  0  0  0  0  0  0
   -8.5734    0.0000    0.0000 C   0  0  0  0  0  0  0  0  0  0  0  0
   -7.8589    0.0000    0.0000 C   0  0  0  0  0  0  0  0  0  0  0  0
   -7.1445    0.0000    0.0000 C   0  0  0  0  0  0  0  0  0  0  0  0
   -6.4301    0.0000    0.0000 C   0  0  0  0  0  0  0  0  0  0  0  0
   -5.7156    0.0000    0.0000 C   0  0  0  0  0  0  0  0  0  0  0  0
   -5.0011    0.0000    0.0000 C   0  0  0  0  0  0  0  0  0  0  0  0
   -4.2867    0.0000    0.0000 C   0  0  0  0  0  0  0  0  0  0  0  0
   -3.5722    0.0000    0.0000 C   0  0  0  0  0  0  0  0  0  0  0  0
   -2.8578    0.0000    0.0000 C   0  0  0  0  0  0  0  0  0  0  0  0
   -2.1434    0.0000    0.0000 C   0  0  0  0  0  0  0  0  0  0  0  0
   -2.1434    0.0000    0.0000 O   0  0  0  0  0  0  0  0  0  0  0  0
   -1.4289    0.0000    0.0000 O   0  0  0  0  0  0  0  0  0  0  0  0
   -0.7144    0.0000    0.0000 C   0  0  0  0  0  0  0  0  0  0  0  0
   -0.0001    0.0000    0.0000 C   0  0  0  0  0  0  0  0  0  0  0  0
    0.7144    0.0000    0.0000 C   0  0  0  0  0  0  0  0  0  0  0  0
    1.4289    0.0000    0.0000 O   0  0  0  0  0  0  0  0  0  0  0  0
    2.1434    0.0000    0.0000 C   0  0  0  0  0  0  0  0  0  0  0  0
    2.1434    0.0000    0.0000 O   0  0  0  0  0  0  0  0  0  0  0  0
    2.8578    0.0000    0.0000 C   0  0  0  0  0  0  0  0  0  0  0  0
    3.5722    0.0000    0.0000 C   0  0  0  0  0  0  0  0  0  0  0  0
    4.2867    0.0000    0.0000 C   0  0  0  0  0  0  0  0  0  0  0  0
    5.0011    0.0000    0.0000 C   0  0  0  0  0  0  0  0  0  0  0  0
    5.7156    0.0000    0.0000 C   0  0  0  0  0  0  0  0  0  0  0  0
    6.4301    0.0000    0.0000 C   0  0  0  0  0  0  0  0  0  0  0  0
    7.1445    0.0000    0.0000 C   0  0  0  0  0  0  0  0  0  0  0  0
    7.8589    0.0000    0.0000 C   0  0  0  0  0  0  0  0  0  0  0  0
    8.5734    0.0000    0.0000 C   0  0  0  0  0  0  0  0  0  0  0  0
    9.2879    0.0000    0.0000 C   0  0  0  0  0  0  0  0  0  0  0  0
   10.0022    0.0000    0.0000 C   0  0  0  0  0  0  0  0  0  0  0  0
   10.0022    0.0000    0.0000 O   0  0  0  0  0  0  0  0  0  0  0  0
   10.7167    0.0000    0.0000 C   0  0  0  0  0  0  0  0  0  0  0  0
   11.4312    0.0000    0.0000 C   0  0  0  0  0  0  0  0  0  0  0  0
   12.1457    0.0000    0.0000 C   0  0  0  0  0  0  0  0  0  0  0  0
   12.8601    0.0000    0.0000 C   0  0  0  0  0  0  0  0  0  0  0  0
   13.5745    0.0000    0.0000 C   0  0  0  0  0  0  0  0  0  0  0  0
   14.2890    0.0000    0.0000 C   0  0  0  0  0  0  0  0  0  0  0  0
   -0.0001    0.0000    0.0000 O   0  0  0  0  0  0  0  0  0  0  0  0
   -0.7144    0.0000    0.0000 C   0  0  0  0  0  0  0  0  0  0  0  0
   -1.4289    0.0000    0.0000 O   0  0  0  0  0  0  0  0  0  0  0  0
   -0.7144    0.0000    0.0000 C   0  0  0  0  0  0  0  0  0  0  0  0
   -1.4289    0.0000    0.0000 C   0  0  0  0  0  0  0  0  0  0  0  0
   -1.4289    0.0000    0.0000 C   0  0  0  0  0  0  0  0  0  0  0  0
   -2.1434    0.0000    0.0000 C   0  0  0  0  0  0  0  0  0  0  0  0
   -2.1434    0.0000    0.0000 C   0  0  0  0  0  0  0  0  0  0  0  0
   -2.8578    0.0000    0.0000 C   0  0  0  0  0  0  0  0  0  0  0  0
   -2.8578    0.0000    0.0000 C   0  0  0  0  0  0  0  0  0  0  0  0
   -3.5722    0.0000    0.0000 C   0  0  0  0  0  0  0  0  0  0  0  0
   -3.5722    0.0000    0.0000 C   0  0  0  0  0  0  0  0  0  0  0  0
   -4.2867    0.0000    0.0000 C   0  0  0  0  0  0  0  0  0  0  0  0
   -4.2867    0.0000    0.0000 C   0  0  0  0  0  0  0  0  0  0  0  0
   -3.5722    0.0000    0.0000 O   0  0  0  0  0  0  0  0  0  0  0  0
   -5.0011    0.0000    0.0000 C   0  0  0  0  0  0  0  0  0  0  0  0
   -5.0011    0.0000    0.0000 C   0  0  0  0  0  0  0  0  0  0  0  0
   -5.7156    0.0000    0.0000 C   0  0  0  0  0  0  0  0  0  0  0  0
   -5.7156    0.0000    0.0000 C   0  0  0  0  0  0  0  0  0  0  0  0
   -6.4301    0.0000    0.0000 C   0  0  0  0  0  0  0  0  0  0  0  0
   -6.4301    0.0000    0.0000 C   0  0  0  0  0  0  0  0  0  0  0  0
  1  2  1  0      
  2  3  1  0      
  3  4  1  0      
  4  5  1  0      
  5  6  1  0      
  6  7  1  0      
  7  8  1  0      
  7  9  1  0      
  9 10  1  0      
 10 11  1  0      
 11 12  1  0      
 12 13  1  0      
 13 14  1  0      
 14 15  1  0      
 15 16  1  0      
 16 17  1  0      
 17 18  1  0      
 18 19  1  0      
 19 20  2  0      
 19 21  1  0      
 21 22  1  0      
 22 23  1  0      
 23 24  1  0      
 24 25  1  0      
 25 26  1  0      
 26 27  2  0      
 26 28  1  0      
 28 29  1  0      
 29 30  1  0      
 30 31  1  0      
 31 32  1  0      
 32 33  1  0      
 33 34  1  0      
 34 35  1  0      
 35 36  1  0      
 36 37  1  0      
 37 38  1  0      
 38 39  1  0      
 38 40  1  0      
 40 41  1  0      
 41 42  1  0      
 42 43  1  0      
 43 44  1  0      
 44 45  1  0      
 23 46  1  0      
 46 47  1  0      
 47 48  2  0      
 47 49  1  0      
 49 50  1  0      
 50 51  1  0      
 51 52  1  0      
 52 53  1  0      
 53 54  1  0      
 54 55  1  0      
 55 56  1  0      
 56 57  1  0      
 57 58  1  0      
 58 59  1  0      
 59 60  1  0      
 59 61  1  0      
 61 62  1  0      
 62 63  1  0      
 63 64  1  0      
 64 65  1  0      
 65 66  1  0      
M  END
>  <Bioactivity>
THIXCIN R is a non-hygroscopic derivative of castor oil that imparts a high degree of thixotropic thickening in cosmetics mineral, vegetable and silicones oils, as well as low-polarity aliphatic solve
nts.

>  <CAS>
8001-79-4

>  <Col>
3

>  <Formula>
C57H104O9

>  <ID>
T3253

>  <Index>
642

>  <MOLENAME>
Castor oil

>  <MolWt>
933.45

>  <Pathways>
Others

>  <Plate>
PLATE 009

>  <QR code>
1151480896

>  <Receptor>
Others

>  <Reference>
1. Thomas. Ullmann's Encyclopedia of Industrial Chemistry, 2005

>  <Row>
A

>  <SMILES>
CCCCCCC(O)CCCCCCCCCCC(=O)OCC(COC(=O)CCCCCCCCCCC(O)CCCCCC)OC(=O)CCCCCCCCCCC(O)CCCCCC

>  <Target>
Others

>  <Weight>
10.2mg

$$$$
Lab-1.sdf
  ChemDraw05232018482D

 43 48  0  0  0  0  0  0  0  0999 V2000
   -1.0717    0.0000    0.0000 C   0  0  0  0  0  0  0  0  0  0  0  0
   -1.0717    0.0000    0.0000 C   0  0  0  0  0  0  0  0  0  0  0  0
   -1.7861    0.0000    0.0000 C   0  0  0  0  0  0  0  0  0  0  0  0
   -1.7861    0.0000    0.0000 C   0  0  0  0  0  0  0  0  0  0  0  0
   -2.5006    0.0000    0.0000 O   0  0  0  0  0  0  0  0  0  0  0  0
   -1.0717    0.0000    0.0000 C   0  0  0  0  0  0  0  0  0  0  0  0
   -1.0717    0.0000    0.0000 C   0  0  0  0  0  0  0  0  0  0  0  0
   -0.3573    0.0000    0.0000 C   0  0  0  0  0  0  0  0  0  0  0  0
    0.3572    0.0000    0.0000 O   0  0  0  0  0  0  0  0  0  0  0  0
   -0.3573    0.0000    0.0000 C   0  0  0  0  0  0  0  0  0  0  0  0
   -1.0717    0.0000    0.0000 O   0  0  0  0  0  0  0  0  0  0  0  0
   -1.7861    0.0000    0.0000 C   0  0  0  0  0  0  0  0  0  0  0  0
   -2.5006    0.0000    0.0000 C   0  0  0  0  0  0  0  0  0  0  0  0
   -3.2151    0.0000    0.0000 C   0  0  0  0  0  0  0  0  0  0  0  0
   -3.9295    0.0000    0.0000 O   0  0  0  0  0  0  0  0  0  0  0  0
   -3.2151    0.0000    0.0000 C   0  0  0  0  0  0  0  0  0  0  0  0
   -2.5006    0.0000    0.0000 C   0  0  0  0  0  0  0  0  0  0  0  0
   -2.9855    0.0000    0.0000 O   0  0  0  0  0  0  0  0  0  0  0  0
   -1.7861    0.0000    0.0000 C   0  0  0  0  0  0  0  0  0  0  0  0
    0.3572    0.0000    0.0000 C   0  0  0  0  0  0  0  0  0  0  0  0
    1.0717    0.0000    0.0000 C   0  0  0  0  0  0  0  0  0  0  0  0
    1.7860    0.0000    0.0000 C   0  0  0  0  0  0  0  0  0  0  0  0
    2.5005    0.0000    0.0000 O   0  0  0  0  0  0  0  0  0  0  0  0
    1.7860    0.0000    0.0000 C   0  0  0  0  0  0  0  0  0  0  0  0
    2.5005    0.0000    0.0000 O   0  0  0  0  0  0  0  0  0  0  0  0
    1.0717    0.0000    0.0000 C   0  0  0  0  0  0  0  0  0  0  0  0
    0.3572    0.0000    0.0000 C   0  0  0  0  0  0  0  0  0  0  0  0
   -0.3573    0.0000    0.0000 C   0  0  0  0  0  0  0  0  0  0  0  0
   -0.3573    0.0000    0.0000 C   0  0  0  0  0  0  0  0  0  0  0  0
    0.3572    0.0000    0.0000 C   0  0  0  0  0  0  0  0  0  0  0  0
    1.0717    0.0000    0.0000 C   0  0  0  0  0  0  0  0  0  0  0  0
    1.3538    0.0000    0.0000 C   0  0  0  0  0  0  0  0  0  0  0  0
    1.8840    0.0000    0.0000 O   0  0  0  0  0  0  0  0  0  0  0  0
    1.0717    0.0000    0.0000 C   0  0  0  0  0  0  0  0  0  0  0  0
    0.3572    0.0000    0.0000 O   0  0  0  0  0  0  0  0  0  0  0  0
    1.7860    0.0000    0.0000 C   0  0  0  0  0  0  0  0  0  0  0  0
    2.5005    0.0000    0.0000 C   0  0  0  0  0  0  0  0  0  0  0  0
    3.2150    0.0000    0.0000 C   0  0  0  0  0  0  0  0  0  0  0  0
    3.9295    0.0000    0.0000 O   0  0  0  0  0  0  0  0  0  0  0  0
    3.2150    0.0000    0.0000 C   0  0  0  0  0  0  0  0  0  0  0  0
    3.9295    0.0000    0.0000 O   0  0  0  0  0  0  0  0  0  0  0  0
    2.5005    0.0000    0.0000 C   0  0  0  0  0  0  0  0  0  0  0  0
    1.7860    0.0000    0.0000 C   0  0  0  0  0  0  0  0  0  0  0  0
  1  2  1  0      
  2  3  2  0      
  3  4  1  0      
  4  5  1  0      
  4  6  2  0      
  6  7  1  0      
  7  8  1  0      
  8  9  1  0      
  8 10  1  0      
 10 11  1  0      
 11 12  1  0      
 12 13  2  0      
 13 14  1  0      
 14 15  1  0      
 14 16  2  0      
 16 17  1  0      
 17 18  1  0      
 17 19  2  0      
  7 19  1  0      
 12 19  1  0      
 10 20  1  0      
 20 21  2  0      
 21 22  1  0      
 22 23  1  0      
 22 24  2  0      
 24 25  1  0      
 24 26  1  0      
 26 27  2  0      
 20 27  1  0      
  6 28  1  0      
 28 29  2  0      
  2 29  1  0      
 29 30  1  0      
 30 31  1  0      
 31 32  1  0      
 31 33  1  0      
 31 34  1  0      
 34 35  1  0      
 28 35  1  0      
 34 36  1  0      
 36 37  2  0      
 37 38  1  0      
 38 39  1  0      
 38 40  2  0      
 40 41  1  0      
 40 42  1  0      
 42 43  2  0      
 36 43  1  0      
M  END
>  <Bioactivity>
Grape Seed Extract are industrial derivatives from whole grape seeds that have a great concentration of vitamin E, flavonoids, linoleic acid, and OPCs. 

>  <CAS>
84929-27-1

>  <Col>
4

>  <Formula>
C32H30O11

>  <ID>
T6520

>  <Index>
643

>  <MOLENAME>
Grape Seed Extract

>  <MolWt>
590.58

>  <Pathways>
Others

>  <Plate>
PLATE 009

>  <QR code>
1151480895

>  <Receptor>
Others

>  <Reference>
N/A

>  <Row>
A

>  <SMILES>
CC1=CC(O)=C(C2C(O)C(OC3=CC(O)=CC(O)=C23)C2=CC(O)=C(O)C=C2)C2=C1CC(C)(O)C(O2)C1=CC(O)=C(O)C=C1

>  <Target>
Others

>  <Weight>
10.3mg

$$$$
Lab-1.sdf
  ChemDraw05232018482D

 15 12  0  0  0  0  0  0  0  0999 V2000
   -3.8006    0.0000    0.0000 O   0  0  0  0  0  0  0  0  0  0  0  0
    3.8006    0.0000    0.0000 Na  0  3  0  0  0  0  0  0  0  0  0  0
    0.9428    0.0000    0.0000 C   0  0  0  0  0  0  0  0  0  0  0  0
    0.9428    0.0000    0.0000 N   0  0  0  0  0  0  0  0  0  0  0  0
    1.6573    0.0000    0.0000 C   0  0  0  0  0  0  0  0  0  0  0  0
    2.3717    0.0000    0.0000 C   0  0  0  0  0  0  0  0  0  0  0  0
    3.0862    0.0000    0.0000 O   0  5  0  0  0  0  0  0  0  0  0  0
    2.3717    0.0000    0.0000 O   0  0  0  0  0  0  0  0  0  0  0  0
    0.2283    0.0000    0.0000 C   0  0  0  0  0  0  0  0  0  0  0  0
    0.2283    0.0000    0.0000 N   0  0  0  0  0  0  0  0  0  0  0  0
   -0.4860    0.0000    0.0000 N   0  0  0  0  0  0  0  0  0  0  0  0
   -1.2005    0.0000    0.0000 P   0  0  0  0  0  0  0  0  0  0  0  0
   -1.9150    0.0000    0.0000 O   0  0  0  0  0  0  0  0  0  0  0  0
   -1.6130    0.0000    0.0000 O   0  0  0  0  0  0  0  0  0  0  0  0
   -0.7880    0.0000    0.0000 O   0  0  0  0  0  0  0  0  0  0  0  0
  3  4  1  0      
  4  5  1  0      
  5  6  1  0      
  6  7  1  0      
  6  8  2  0      
  4  9  1  0      
  9 10  1  0      
  9 11  2  0      
 11 12  1  4      
 12 13  1  0      
 12 14  1  0      
 12 15  2  0      
M  CHG  2   2   1   7  -1
M  END
>  <Bioactivity>
Creatine phosphate is aphosphorylated creatine molecule that serves as a rapidly mobilizable reserve of high-energy phosphates in skeletal?muscle?and the?brain

>  <CAS>
922-32-7

>  <Col>
5

>  <Formula>
C4H8N3Na2O5P

>  <ID>
T3262

>  <Index>
644

>  <MOLENAME>
Creatine phosphate disodium salt

>  <MolWt>
251.111

>  <Pathways>
Others

>  <Plate>
PLATE 009

>  <QR code>
1151480894

>  <Receptor>
Others

>  <Reference>
1. Schlattner, U et al. Biochimica et Biophysica Acta (BBA) - Molecular Basis of Disease. 1762 (2): 164?180.

>  <Row>
A

>  <SMILES>
O.[Na+].CN(CC([O-])=O)C(N)=NP(O)(O)=O

>  <Target>
Others

>  <Weight>
10.1mg

$$$$
Lab-1.sdf
  ChemDraw05232018482D

 11 11  0  0  0  0  0  0  0  0999 V2000
    0.7144    0.0000    0.0000 C   0  0  0  0  0  0  0  0  0  0  0  0
    0.0000    0.0000    0.0000 O   0  0  0  0  0  0  0  0  0  0  0  0
    0.0000    0.0000    0.0000 C   0  0  0  0  0  0  0  0  0  0  0  0
    0.7144    0.0000    0.0000 C   0  0  0  0  0  0  0  0  0  0  0  0
    1.4289    0.0000    0.0000 O   0  0  0  0  0  0  0  0  0  0  0  0
    0.7144    0.0000    0.0000 C   0  0  0  0  0  0  0  0  0  0  0  0
    0.0000    0.0000    0.0000 C   0  0  0  0  0  0  0  0  0  0  0  0
   -0.7144    0.0000    0.0000 C   0  0  0  0  0  0  0  0  0  0  0  0
   -1.4289    0.0000    0.0000 C   0  0  0  0  0  0  0  0  0  0  0  0
   -1.4289    0.0000    0.0000 O   0  0  0  0  0  0  0  0  0  0  0  0
   -0.7144    0.0000    0.0000 C   0  0  0  0  0  0  0  0  0  0  0  0
  1  2  1  0      
  2  3  1  0      
  3  4  2  0      
  4  5  1  0      
  4  6  1  0      
  6  7  2  0      
  7  8  1  0      
  8  9  1  0      
  9 10  2  0      
  8 11  2  0      
  3 11  1  0      
M  END
>  <Bioactivity>
Vanillin is mainly used as a flavouring agent, primarily in foods and beverages such as chocolate and dairy products, but also to mask unpleasant tastes in medicines or livestock fodder. It is also an
 intermediate in the manufacture of certain pharmaceuticals and?agrochemicals. - See more at: http://www.evolva.com/vanillin/#sthash.JhsWbxT7.dpuf

>  <CAS>
121-33-5

>  <Col>
6

>  <Formula>
C8H8O3

>  <ID>
T6717

>  <Index>
645

>  <MOLENAME>
Vanillin

>  <MolWt>
152.15

>  <Pathways>
Others

>  <Plate>
PLATE 009

>  <QR code>
1151480893

>  <Receptor>
Others

>  <Reference>
1. Abraham DJ, et al. Blood, 1991, 77(6), 1334-1341.

>  <Row>
A

>  <SMILES>
COC1=C(O)C=CC(C=O)=C1

>  <Target>
Others

>  <Weight>
10.4mg

$$$$
Lab-1.sdf
  ChemDraw05232018482D

 11 11  0  0  0  0  0  0  0  0999 V2000
   -0.7144    0.0000    0.0000 C   0  0  0  0  0  0  0  0  0  0  0  0
    0.0001    0.0000    0.0000 C   0  0  0  0  0  0  0  0  0  0  0  0
    0.7144    0.0000    0.0000 C   0  0  0  0  0  0  0  0  0  0  0  0
    0.0001    0.0000    0.0000 C   0  0  0  0  0  0  0  0  0  0  0  0
    0.7144    0.0000    0.0000 C   0  0  0  0  0  0  0  0  0  0  0  0
    0.7144    0.0000    0.0000 C   0  0  0  0  0  0  0  0  0  0  0  0
    0.0001    0.0000    0.0000 C   0  0  0  0  0  0  0  0  0  0  0  0
   -0.7144    0.0000    0.0000 C   0  0  0  0  0  0  0  0  0  0  0  0
   -0.7144    0.0000    0.0000 C   0  0  0  0  0  0  0  0  0  0  0  0
    0.0001    0.0000    0.0000 C   0  0  0  0  0  0  0  0  0  0  0  0
    0.7144    0.0000    0.0000 O   0  0  0  0  0  0  0  0  0  0  0  0
  1  2  1  0      
  2  3  2  0      
  2  4  1  0      
  4  5  1  0      
  5  6  1  0      
  6  7  1  0      
  7  8  2  0      
  8  9  1  0      
  4  9  1  0      
  7 10  1  0      
 10 11  1  0      
M  END
>  <Bioactivity>
Perillyl alcohol (POH) is a natural substance called a monoterpene, isolated from the essential oils of?lavender,peppermint,?spearmint, cherries, celery seeds, and several other plants. Laboratory evi
dence suggests that it interferes with the replication of dividing cells. POH has shown antitumor activity against a range of Y types including pancreatic, lung, colon, and liver Ys in laboratory and 
animal studies, but these results have not yet translated into benefits in humans. Clinical trials of oral POH for various Ys including breast, prostate, and ovarian Ys did not find benefit and also n
oted adverse side effects, even after modifying dosing regimens to try to improve effectiveness and tolerability. However, an inhaled form of POH has shown preliminary evidence of safety and effective
ness in patients with recurrent gliomas. In addition, other purified forms are being studied as chemical modifiers of established drugs used to treat Y in order to improve outcomes.

>  <CAS>
536-59-4

>  <Col>
7

>  <Formula>
C10H16O

>  <ID>
T3314

>  <Index>
646

>  <MOLENAME>
Perillyl alcohol

>  <MolWt>
152.23

>  <Pathways>
Others

>  <Plate>
PLATE 009

>  <QR code>
1151480892

>  <Receptor>
Others

>  <Reference>
1. Ripple GH.?Clin Y Res?2000;6:390-6.

>  <Row>
A

>  <SMILES>
CC(=C)C1CCC(=CC1)CO

>  <Target>
Others

>  <Weight>
10.5mg

$$$$
Lab-1.sdf
  ChemDraw05232018482D

 33 37  0  0  0  0  0  0  0  0999 V2000
   -3.8938    0.0000    0.0000 C   0  0  0  0  0  0  0  0  0  0  0  0
   -3.1186    0.0000    0.0000 C   0  0  0  0  0  0  0  0  0  0  0  0
   -3.5311    0.0000    0.0000 C   0  0  0  0  0  0  0  0  0  0  0  0
   -3.1186    0.0000    0.0000 C   0  0  0  0  0  0  0  0  0  0  0  0
   -2.2936    0.0000    0.0000 C   0  0  0  0  0  0  0  0  0  0  0  0
   -1.8811    0.0000    0.0000 C   0  0  0  0  0  0  0  0  0  0  0  0
   -1.0561    0.0000    0.0000 C   0  0  0  0  0  0  0  0  0  0  0  0
   -0.6436    0.0000    0.0000 C   0  0  0  0  0  0  0  0  0  0  0  0
   -1.0561    0.0000    0.0000 C   0  0  0  0  0  0  0  0  0  0  0  0
   -0.6436    0.0000    0.0000 C   0  0  0  0  0  0  0  0  0  0  0  0
    0.1813    0.0000    0.0000 C   0  0  0  0  0  0  0  0  0  0  0  0
    0.5938    0.0000    0.0000 C   0  0  0  0  0  0  0  0  0  0  0  0
    0.1813    0.0000    0.0000 C   0  0  0  0  0  0  0  0  0  0  0  0
    0.5938    0.0000    0.0000 C   0  0  0  0  0  0  0  0  0  0  0  0
    1.4188    0.0000    0.0000 C   0  0  0  0  0  0  0  0  0  0  0  0
    1.8313    0.0000    0.0000 C   0  0  0  0  0  0  0  0  0  0  0  0
    1.4188    0.0000    0.0000 C   0  0  0  0  0  0  0  0  0  0  0  0
    1.8313    0.0000    0.0000 C   0  0  0  0  0  0  0  0  0  0  0  0
    2.6563    0.0000    0.0000 C   0  0  0  0  0  0  0  0  0  0  0  0
    3.0688    0.0000    0.0000 C   0  0  0  0  0  0  0  0  0  0  0  0
    3.8938    0.0000    0.0000 O   0  0  0  0  0  0  0  0  0  0  0  0
    2.6563    0.0000    0.0000 C   0  0  0  0  0  0  0  0  0  0  0  0
    3.3560    0.0000    0.0000 C   0  0  0  0  0  0  0  0  0  0  0  0
    2.6851    0.0000    0.0000 C   0  0  0  0  0  0  0  0  0  0  0  0
    1.0063    0.0000    0.0000 C   0  0  0  0  0  0  0  0  0  0  0  0
   -0.2312    0.0000    0.0000 C   0  0  0  0  0  0  0  0  0  0  0  0
   -1.8811    0.0000    0.0000 C   0  0  0  0  0  0  0  0  0  0  0  0
   -2.2936    0.0000    0.0000 C   0  0  0  0  0  0  0  0  0  0  0  0
   -0.7298    0.0000    0.0000 C   0  0  0  0  0  0  0  0  0  0  0  0
   -2.7061    0.0000    0.0000 C   0  0  0  0  0  0  0  0  0  0  0  0
   -2.2936    0.0000    0.0000 O   0  0  0  0  0  0  0  0  0  0  0  0
   -3.5311    0.0000    0.0000 O   0  0  0  0  0  0  0  0  0  0  0  0
   -2.9753    0.0000    0.0000 C   0  0  0  0  0  0  0  0  0  0  0  0
  1  2  1  0      
  2  3  1  0      
  3  4  1  0      
  4  5  1  0      
  5  6  1  0      
  6  7  1  0      
  7  8  1  0      
  8  9  1  0      
  9 10  2  0      
 10 11  1  0      
 11 12  1  0      
 12 13  1  0      
  8 13  1  0      
 13 14  1  0      
 14 15  1  0      
 15 16  1  0      
 16 17  1  0      
 12 17  1  0      
 17 18  1  0      
 18 19  1  0      
 19 20  1  0      
 20 21  2  0      
 20 22  1  0      
 16 22  1  0      
 22 23  1  0      
 22 24  1  0      
 17 25  1  0      
 13 26  1  0      
  9 27  1  0      
  5 27  1  0      
 27 28  1  0      
  2 28  1  0      
  8 29  1  0      
  5 30  1  0      
 30 31  2  0      
 30 32  1  0      
  2 33  1  0      
M  END
>  <Bioactivity>
Oleanolic acid is relatively non-toxic,hepatoprotective, and exhibits?antitumor?andantiviral?properties.

>  <CAS>
17990-42-0

>  <Col>
8

>  <Formula>
C30H46O3

>  <ID>
T3321

>  <Index>
647

>  <MOLENAME>
Oleanonic?Acid

>  <MolWt>
454.69

>  <Pathways>
Others

>  <Plate>
PLATE 009

>  <QR code>
1151480891

>  <Receptor>
Others

>  <Reference>
1. Liu J. Journal of Ethnopharmacology. 1995, 49 (2): 57?68. 

>  <Row>
A

>  <SMILES>
CC1(CCC2(CCC3(C(=CCC4C3(CCC5C4(CCC(=O)C5(C)C)C)C)C2C1)C)C(=O)O)C

>  <Target>
Others

>  <Weight>
10.3mg

$$$$
Lab-1.sdf
  ChemDraw05232018482D

 21 23  0  0  0  0  0  0  0  0999 V2000
   -3.9295    0.0000    0.0000 C   0  0  0  0  0  0  0  0  0  0  0  0
   -3.2151    0.0000    0.0000 O   0  0  0  0  0  0  0  0  0  0  0  0
   -2.5006    0.0000    0.0000 C   0  0  0  0  0  0  0  0  0  0  0  0
   -1.7861    0.0000    0.0000 C   0  0  0  0  0  0  0  0  0  0  0  0
   -1.0717    0.0000    0.0000 C   0  0  0  0  0  0  0  0  0  0  0  0
   -1.0717    0.0000    0.0000 C   0  0  0  0  0  0  0  0  0  0  0  0
   -1.7861    0.0000    0.0000 C   0  0  0  0  0  0  0  0  0  0  0  0
   -2.5006    0.0000    0.0000 C   0  0  0  0  0  0  0  0  0  0  0  0
   -0.3573    0.0000    0.0000 C   0  0  0  0  0  0  0  0  0  0  0  0
   -0.3573    0.0000    0.0000 C   0  0  0  0  0  0  0  0  0  0  0  0
    0.3572    0.0000    0.0000 O   0  0  0  0  0  0  0  0  0  0  0  0
    1.0717    0.0000    0.0000 C   0  0  0  0  0  0  0  0  0  0  0  0
    1.0717    0.0000    0.0000 C   0  0  0  0  0  0  0  0  0  0  0  0
    0.3572    0.0000    0.0000 C   0  0  0  0  0  0  0  0  0  0  0  0
    0.3572    0.0000    0.0000 O   0  0  0  0  0  0  0  0  0  0  0  0
    1.7860    0.0000    0.0000 C   0  0  0  0  0  0  0  0  0  0  0  0
    2.5005    0.0000    0.0000 C   0  0  0  0  0  0  0  0  0  0  0  0
    2.5005    0.0000    0.0000 C   0  0  0  0  0  0  0  0  0  0  0  0
    1.7860    0.0000    0.0000 C   0  0  0  0  0  0  0  0  0  0  0  0
    3.2150    0.0000    0.0000 O   0  0  0  0  0  0  0  0  0  0  0  0
    3.9295    0.0000    0.0000 C   0  0  0  0  0  0  0  0  0  0  0  0
  1  2  1  0      
  2  3  1  0      
  3  4  2  0      
  4  5  1  0      
  5  6  2  0      
  6  7  1  0      
  7  8  2  0      
  3  8  1  0      
  6  9  1  0      
  9 10  2  0      
 10 11  1  0      
 11 12  1  0      
 12 13  2  0      
 13 14  1  0      
  9 14  1  0      
 14 15  2  0      
 13 16  1  0      
 16 17  2  0      
 17 18  1  0      
 18 19  2  0      
 12 19  1  0      
 18 20  1  0      
 20 21  1  0      
M  END
>  <Bioactivity>
4',7-dimethoxyisoflavone?is a kind of isoflavonoids which showed  inhibitory effects on rat prostate testosterone 5¦Á-reductase.

>  <CAS>
1157-39-7

>  <Col>
9

>  <Formula>
C17H14O4

>  <ID>
T3329

>  <Index>
648

>  <MOLENAME>
4',7-Dimethoxyisoflavone

>  <MolWt>
282.29

>  <Pathways>
Others

>  <Plate>
PLATE 009

>  <QR code>
1151480890

>  <Receptor>
Others

>  <Reference>
1. Bae M, et al. J Acupunct Meridian Stud. 2012, 5(6):319-22.

>  <Row>
A

>  <SMILES>
COC1=CC=C(C=C1)C2=COC3=C(C2=O)C=CC(=C3)OC

>  <Target>
testosterone 5¦Á-reductase

>  <Weight>
10.1mg

$$$$
Lab-1.sdf
  ChemDraw05232018482D

 18 20  0  0  0  0  0  0  0  0999 V2000
   -0.0925    0.0000    0.0000 C   0  0  0  0  0  0  0  0  0  0  0  0
    0.2579    0.0000    0.0000 C   0  0  0  0  0  0  0  0  0  0  0  0
    1.0800    0.0000    0.0000 C   0  0  0  0  0  0  0  0  0  0  0  0
    1.4303    0.0000    0.0000 C   0  0  0  0  0  0  0  0  0  0  0  0
    0.9587    0.0000    0.0000 C   0  0  0  0  0  0  0  0  0  0  0  0
    1.3091    0.0000    0.0000 C   0  0  0  0  0  0  0  0  0  0  0  0
    0.8375    0.0000    0.0000 C   0  0  0  0  0  0  0  0  0  0  0  0
    1.6595    0.0000    0.0000 O   0  0  0  0  0  0  0  0  0  0  0  0
    0.0155    0.0000    0.0000 C   0  0  0  0  0  0  0  0  0  0  0  0
   -0.3349    0.0000    0.0000 C   0  0  0  0  0  0  0  0  0  0  0  0
    0.1367    0.0000    0.0000 C   0  0  0  0  0  0  0  0  0  0  0  0
   -0.2137    0.0000    0.0000 C   0  0  0  0  0  0  0  0  0  0  0  0
   -1.1536    0.0000    0.0000 C   0  0  0  0  0  0  0  0  0  0  0  0
   -1.7176    0.0000    0.0000 C   0  0  0  0  0  0  0  0  0  0  0  0
   -1.3091    0.0000    0.0000 C   0  0  0  0  0  0  0  0  0  0  0  0
   -2.0560    0.0000    0.0000 O   0  0  0  0  0  0  0  0  0  0  0  0
   -0.5866    0.0000    0.0000 O   0  0  0  0  0  0  0  0  0  0  0  0
    2.0560    0.0000    0.0000 C   0  0  0  0  0  0  0  0  0  0  0  0
  1  2  1  0      
  2  3  2  0      
  3  4  1  4      
  4  5  1  0      
  5  6  1  0      
  6  7  1  0      
  7  8  1  0      
  6  8  1  0      
  7  9  1  0      
  9 10  1  0      
 10 11  1  0      
 11 12  1  0      
  2 12  1  0      
 10 13  1  0      
 13 14  2  0      
 13 15  1  0      
 15 16  2  0      
 15 17  1  0      
  9 17  1  0      
  6 18  1  0      
M  END
>  <Bioactivity>
(-)-Parthenolide is a sesquiterpene lactone which occurs naturally in the plant feverfew(Tanacetum parthenium) and also promotes the ubiquitination of MDM2 and activates p53 cellular functions.

>  <CAS>
20554-84-1

>  <Col>
10

>  <Formula>
C15H20O3

>  <ID>
T2140

>  <Index>
649

>  <MOLENAME>
Parthenolide

>  <MolWt>
248.32

>  <Pathways>
Ubiquitination

>  <Plate>
PLATE 009

>  <QR code>
1151480889

>  <Receptor>
MDM2; p53 

>  <Reference>
1. Lin M, et al. Parthenolide suppresses non-small cell lung cancer GLC-82 cells growth via B-Raf/MAPK/Erk pathway. Oncotarget. 2017 Apr 4;8(14):23436-23447.

>  <Row>
A

>  <SMILES>
CC1=CCCC2(C(O2)C3C(CC1)C(=C)C(=O)O3)C

>  <Target>
E3 Ligase activator

>  <Weight>
10.2mg

$$$$
Lab-1.sdf
  ChemDraw05232018482D

 20 21  0  0  0  0  0  0  0  0999 V2000
   -0.0001    0.0000    0.0000 C   0  0  0  0  0  0  0  0  0  0  0  0
    0.7145    0.0000    0.0000 O   0  0  0  0  0  0  0  0  0  0  0  0
    0.7145    0.0000    0.0000 C   0  0  0  0  0  0  0  0  0  0  0  0
    1.4289    0.0000    0.0000 C   0  0  0  0  0  0  0  0  0  0  0  0
    1.4289    0.0000    0.0000 C   0  0  0  0  0  0  0  0  0  0  0  0
    0.7145    0.0000    0.0000 C   0  0  0  0  0  0  0  0  0  0  0  0
   -0.0001    0.0000    0.0000 C   0  0  0  0  0  0  0  0  0  0  0  0
   -0.0001    0.0000    0.0000 C   0  0  0  0  0  0  0  0  0  0  0  0
    0.7145    0.0000    0.0000 C   0  0  0  0  0  0  0  0  0  0  0  0
   -0.0001    0.0000    0.0000 C   0  0  0  0  0  0  0  0  0  0  0  0
   -0.0001    0.0000    0.0000 C   0  0  0  0  0  0  0  0  0  0  0  0
    0.7145    0.0000    0.0000 C   0  0  0  0  0  0  0  0  0  0  0  0
    0.7145    0.0000    0.0000 C   0  0  0  0  0  0  0  0  0  0  0  0
   -0.0001    0.0000    0.0000 C   0  0  0  0  0  0  0  0  0  0  0  0
   -0.7145    0.0000    0.0000 C   0  0  0  0  0  0  0  0  0  0  0  0
   -0.7145    0.0000    0.0000 C   0  0  0  0  0  0  0  0  0  0  0  0
   -1.4289    0.0000    0.0000 O   0  0  0  0  0  0  0  0  0  0  0  0
   -1.4289    0.0000    0.0000 C   0  0  0  0  0  0  0  0  0  0  0  0
    1.4289    0.0000    0.0000 O   0  0  0  0  0  0  0  0  0  0  0  0
    1.4289    0.0000    0.0000 C   0  0  0  0  0  0  0  0  0  0  0  0
  1  2  1  0      
  2  3  1  0      
  3  4  2  0      
  4  5  1  0      
  5  6  2  0      
  6  7  1  0      
  7  8  2  0      
  3  8  1  0      
  9  6  1  4      
  9 10  2  0      
 10 11  1  0      
 11 12  2  0      
 12 13  1  0      
 13 14  2  0      
 14 15  1  0      
 15 16  2  0      
 11 16  1  0      
 15 17  1  0      
 17 18  1  0      
 13 19  1  0      
 19 20  1  0      
M  END
>  <Bioactivity>
3,5,4'-Trimethoxystilbene, a natural methoxylated analog of resveratrol, inhibits breast Y cell invasiveness by downregulation of PI3K/Akt and Wnt/¦Â-catenin signaling cascades and reversal of epithel
ial-mesenchymal transition.

>  <CAS>
22255-22-7

>  <Col>
11

>  <Formula>
C17H18O3

>  <ID>
T3330

>  <Index>
650

>  <MOLENAME>
3,5,4'-Trimethoxystilbene

>  <MolWt>
270.32

>  <Pathways>
PI3K/Akt; Wnt/¦Â-catenin signaling pathway

>  <Plate>
PLATE 009

>  <QR code>
1151480888

>  <Receptor>
Others

>  <Reference>
1. Tsai JH et al. Toxicol Appl Pharmacol. 2013 Nov 1;272(3):746-56

>  <Row>
A

>  <SMILES>
COC1=CC=C(C=C1)C=CC2=CC(=CC(=C2)OC)OC

>  <Target>
Others

>  <Weight>
10.3mg

$$$$
Lab-1.sdf
  ChemDraw05232018482D

 21 25  0  0  0  0  0  0  0  0999 V2000
   -2.6985    0.0000    0.0000 C   0  0  0  0  0  0  0  0  0  0  0  0
   -2.2136    0.0000    0.0000 C   0  0  0  0  0  0  0  0  0  0  0  0
   -1.4290    0.0000    0.0000 N   0  0  0  0  0  0  0  0  0  0  0  0
   -0.7145    0.0000    0.0000 C   0  0  0  0  0  0  0  0  0  0  0  0
    0.0001    0.0000    0.0000 C   0  0  0  0  0  0  0  0  0  0  0  0
    0.7145    0.0000    0.0000 C   0  0  0  0  0  0  0  0  0  0  0  0
    1.4290    0.0000    0.0000 C   0  0  0  0  0  0  0  0  0  0  0  0
    1.4290    0.0000    0.0000 C   0  0  0  0  0  0  0  0  0  0  0  0
    0.7145    0.0000    0.0000 C   0  0  0  0  0  0  0  0  0  0  0  0
    0.0001    0.0000    0.0000 C   0  0  0  0  0  0  0  0  0  0  0  0
   -0.7145    0.0000    0.0000 C   0  0  0  0  0  0  0  0  0  0  0  0
   -1.4290    0.0000    0.0000 C   0  0  0  0  0  0  0  0  0  0  0  0
   -2.2136    0.0000    0.0000 C   0  0  0  0  0  0  0  0  0  0  0  0
   -2.3851    0.0000    0.0000 C   0  0  0  0  0  0  0  0  0  0  0  0
   -1.7720    0.0000    0.0000 C   0  0  0  0  0  0  0  0  0  0  0  0
   -0.9874    0.0000    0.0000 C   0  0  0  0  0  0  0  0  0  0  0  0
   -0.3944    0.0000    0.0000 O   0  0  0  0  0  0  0  0  0  0  0  0
   -1.9436    0.0000    0.0000 O   0  0  0  0  0  0  0  0  0  0  0  0
    2.2136    0.0000    0.0000 O   0  0  0  0  0  0  0  0  0  0  0  0
    2.6985    0.0000    0.0000 C   0  0  0  0  0  0  0  0  0  0  0  0
    2.2136    0.0000    0.0000 O   0  0  0  0  0  0  0  0  0  0  0  0
  1  2  1  0      
  2  3  1  0      
  3  4  1  0      
  4  5  1  0      
  5  6  2  0      
  6  7  1  0      
  7  8  2  0      
  8  9  1  0      
  9 10  2  0      
  5 10  1  0      
 10 11  1  0      
 11 12  1  0      
  3 12  1  0      
 12 13  1  0      
  1 13  1  0      
 13 14  2  0      
 14 15  1  0      
 15 16  1  0      
 11 16  1  0      
 16 17  1  0      
 15 18  1  0      
  8 19  1  0      
 19 20  1  0      
 20 21  1  0      
  7 21  1  0      
M  END
>  <Bioactivity>
Lycorine inhibits?protein synthesis, and may inhibit?ascorbic acid?biosynthesis, although studies on the latter are controversial and inconclusive.

>  <CAS>
476-28-8

>  <Col>
2

>  <Formula>
C16H17NO4

>  <ID>
T3324

>  <Index>
651

>  <MOLENAME>
Lycorine

>  <MolWt>
287.31

>  <Pathways>
Others

>  <Plate>
PLATE 009

>  <QR code>
1151480876

>  <Receptor>
Others

>  <Reference>
1. Vrijsen R. Biol. Chem. 1986, 261 (2): 505?7. 

>  <Row>
B

>  <SMILES>
C1CN2CC3=CC4=C(C=C3C5C2C1=CC(C5O)O)OCO4

>  <Target>
Others

>  <Weight>
10.3mg

$$$$
Lab-1.sdf
  ChemDraw05232018482D

  7  6  0  0  0  0  0  0  0  0999 V2000
    1.2375    0.0000    0.0000 C   0  0  0  0  0  0  0  0  0  0  0  0
    0.8250    0.0000    0.0000 C   0  0  0  0  0  0  0  0  0  0  0  0
   -0.0000    0.0000    0.0000 C   0  0  0  0  0  0  0  0  0  0  0  0
   -0.4125    0.0000    0.0000 C   0  0  0  0  0  0  0  0  0  0  0  0
   -0.4125    0.0000    0.0000 C   0  0  0  0  0  0  0  0  0  0  0  0
   -0.0000    0.0000    0.0000 O   0  0  0  0  0  0  0  0  0  0  0  0
   -1.2375    0.0000    0.0000 O   0  0  0  0  0  0  0  0  0  0  0  0
  2  1  1  4      
  2  3  2  0      
  3  4  1  0      
  3  5  1  0      
  5  6  2  0      
  5  7  1  0      
M  END
>  <Bioactivity>
Angelic acid?is a?monocarboxylic?unsaturatedorganic acid. Angelic acid esters are the active components of herbal medicine used against a wide range of various health disturbances including pains, fev
er, gout, heartburn, etc.

>  <CAS>
565-63-9

>  <Col>
3

>  <Formula>
C5H8O2

>  <ID>
T3328

>  <Index>
652

>  <MOLENAME>
Angelic Acid

>  <MolWt>
100.12

>  <Pathways>
Others

>  <Plate>
PLATE 009

>  <QR code>
1151480877

>  <Receptor>
Others

>  <Reference>
1. Ernest Small?Culinary herbs, National Research Council Canada, 2006, p. 288

>  <Row>
B

>  <SMILES>
CC=C(C)C(=O)O

>  <Target>
Others

>  <Weight>
10.1mg

$$$$
Lab-1.sdf
  ChemDraw05232018482D

 19 21  0  0  0  0  0  0  0  0999 V2000
   -0.3572    0.0000    0.0000 C   0  0  0  0  0  0  0  0  0  0  0  0
   -0.3572    0.0000    0.0000 C   0  0  0  0  0  0  0  0  0  0  0  0
    0.3572    0.0000    0.0000 O   0  0  0  0  0  0  0  0  0  0  0  0
    1.0717    0.0000    0.0000 C   0  0  0  0  0  0  0  0  0  0  0  0
    1.0717    0.0000    0.0000 C   0  0  0  0  0  0  0  0  0  0  0  0
    0.3572    0.0000    0.0000 C   0  0  0  0  0  0  0  0  0  0  0  0
    0.3572    0.0000    0.0000 O   0  0  0  0  0  0  0  0  0  0  0  0
    1.7861    0.0000    0.0000 C   0  0  0  0  0  0  0  0  0  0  0  0
    2.5006    0.0000    0.0000 C   0  0  0  0  0  0  0  0  0  0  0  0
    2.5006    0.0000    0.0000 C   0  0  0  0  0  0  0  0  0  0  0  0
    1.7861    0.0000    0.0000 C   0  0  0  0  0  0  0  0  0  0  0  0
    3.2151    0.0000    0.0000 O   0  0  0  0  0  0  0  0  0  0  0  0
   -1.0716    0.0000    0.0000 C   0  0  0  0  0  0  0  0  0  0  0  0
   -1.0716    0.0000    0.0000 C   0  0  0  0  0  0  0  0  0  0  0  0
   -1.7861    0.0000    0.0000 C   0  0  0  0  0  0  0  0  0  0  0  0
   -2.5006    0.0000    0.0000 C   0  0  0  0  0  0  0  0  0  0  0  0
   -2.5006    0.0000    0.0000 C   0  0  0  0  0  0  0  0  0  0  0  0
   -1.7861    0.0000    0.0000 C   0  0  0  0  0  0  0  0  0  0  0  0
   -3.2151    0.0000    0.0000 O   0  0  0  0  0  0  0  0  0  0  0  0
  1  2  1  0      
  2  3  1  0      
  3  4  1  0      
  4  5  2  0      
  5  6  1  0      
  1  6  1  0      
  6  7  2  0      
  5  8  1  0      
  8  9  2  0      
  9 10  1  0      
 10 11  2  0      
  4 11  1  0      
 10 12  1  0      
  2 13  1  0      
 13 14  2  0      
 14 15  1  0      
 15 16  2  0      
 16 17  1  0      
 17 18  2  0      
 13 18  1  0      
 16 19  1  0      
M  END
>  <Bioactivity>
Liquiritigenin, a flavonoid aglycone from licorice, has a choleretic effect and the ability to induce hepatic transporters and phase-II enzymes

>  <CAS>
578-86-9

>  <Col>
4

>  <Formula>
C15H12O4

>  <ID>
T3325

>  <Index>
653

>  <MOLENAME>
Liquiritigenin

>  <MolWt>
256.25

>  <Pathways>
Endocrinology/ Hormones

>  <Plate>
PLATE 009

>  <QR code>
1151480878

>  <Receptor>
ER¦Â

>  <Reference>
1. Kim, YW. Gastrointestinal and Liver Physiology. 296 (2): G372?81. 

>  <Row>
B

>  <SMILES>
C1C(OC2=C(C1=O)C=CC(=C2)O)C3=CC=C(C=C3)O

>  <Target>
Estrogen/Progestogen Receptor agonist

>  <Weight>
10.3mg

$$$$
Lab-1.sdf
  ChemDraw05232018482D

 33 37  0  0  0  0  0  0  0  0999 V2000
   -3.7125    0.0000    0.0000 C   0  0  0  0  0  0  0  0  0  0  0  0
   -3.3000    0.0000    0.0000 C   0  0  0  0  0  0  0  0  0  0  0  0
   -3.7125    0.0000    0.0000 C   0  0  0  0  0  0  0  0  0  0  0  0
   -3.3000    0.0000    0.0000 C   0  0  0  0  0  0  0  0  0  0  0  0
   -2.4750    0.0000    0.0000 C   0  0  0  0  0  0  0  0  0  0  0  0
   -2.0625    0.0000    0.0000 C   0  0  0  0  0  0  0  0  0  0  0  0
   -1.2375    0.0000    0.0000 C   0  0  0  0  0  0  0  0  0  0  0  0
   -0.8250    0.0000    0.0000 C   0  0  0  0  0  0  0  0  0  0  0  0
   -1.2375    0.0000    0.0000 C   0  0  0  0  0  0  0  0  0  0  0  0
   -0.8250    0.0000    0.0000 C   0  0  0  0  0  0  0  0  0  0  0  0
   -0.0000    0.0000    0.0000 C   0  0  0  0  0  0  0  0  0  0  0  0
    0.4125    0.0000    0.0000 C   0  0  0  0  0  0  0  0  0  0  0  0
   -0.0000    0.0000    0.0000 C   0  0  0  0  0  0  0  0  0  0  0  0
    0.4125    0.0000    0.0000 C   0  0  0  0  0  0  0  0  0  0  0  0
    1.2375    0.0000    0.0000 C   0  0  0  0  0  0  0  0  0  0  0  0
    1.6500    0.0000    0.0000 C   0  0  0  0  0  0  0  0  0  0  0  0
    1.2375    0.0000    0.0000 C   0  0  0  0  0  0  0  0  0  0  0  0
    1.6500    0.0000    0.0000 C   0  0  0  0  0  0  0  0  0  0  0  0
    2.4750    0.0000    0.0000 C   0  0  0  0  0  0  0  0  0  0  0  0
    2.8875    0.0000    0.0000 C   0  0  0  0  0  0  0  0  0  0  0  0
    3.7125    0.0000    0.0000 O   0  0  0  0  0  0  0  0  0  0  0  0
    2.4750    0.0000    0.0000 C   0  0  0  0  0  0  0  0  0  0  0  0
    3.1747    0.0000    0.0000 C   0  0  0  0  0  0  0  0  0  0  0  0
    2.5038    0.0000    0.0000 C   0  0  0  0  0  0  0  0  0  0  0  0
    0.8250    0.0000    0.0000 C   0  0  0  0  0  0  0  0  0  0  0  0
   -0.4125    0.0000    0.0000 C   0  0  0  0  0  0  0  0  0  0  0  0
   -2.0625    0.0000    0.0000 C   0  0  0  0  0  0  0  0  0  0  0  0
   -2.4750    0.0000    0.0000 C   0  0  0  0  0  0  0  0  0  0  0  0
   -2.0625    0.0000    0.0000 C   0  0  0  0  0  0  0  0  0  0  0  0
   -0.9112    0.0000    0.0000 C   0  0  0  0  0  0  0  0  0  0  0  0
   -2.8875    0.0000    0.0000 C   0  0  0  0  0  0  0  0  0  0  0  0
   -3.7125    0.0000    0.0000 O   0  0  0  0  0  0  0  0  0  0  0  0
   -2.4750    0.0000    0.0000 O   0  0  0  0  0  0  0  0  0  0  0  0
  1  2  1  0      
  2  3  1  0      
  3  4  1  0      
  4  5  1  0      
  5  6  1  0      
  6  7  1  0      
  7  8  1  0      
  8  9  1  0      
  9 10  2  0      
 10 11  1  0      
 11 12  1  0      
 12 13  1  0      
  8 13  1  0      
 13 14  1  0      
 14 15  1  0      
 15 16  1  0      
 16 17  1  0      
 12 17  1  0      
 17 18  1  0      
 18 19  1  0      
 19 20  1  0      
 20 21  2  0      
 20 22  1  0      
 16 22  1  0      
 22 23  1  0      
 22 24  1  0      
 17 25  1  0      
 13 26  1  0      
  9 27  1  0      
  5 27  1  0      
 27 28  1  0      
  2 28  1  0      
 28 29  1  0      
  8 30  1  0      
  5 31  1  0      
 31 32  2  0      
 31 33  1  0      
M  END
>  <Bioactivity>
Ursonic acid belongs to the family of Ursane Triterpenes whose structure is based on the pentacyclic ursane skeleton. It has potential as HIV-1 Protease Inhibitor.

>  <CAS>
6246-46-4

>  <Col>
5

>  <Formula>
C30H46O3

>  <ID>
T3323

>  <Index>
654

>  <MOLENAME>
Ursonic Acid

>  <MolWt>
454.69

>  <Pathways>
Others

>  <Plate>
PLATE 009

>  <QR code>
1151480879

>  <Receptor>
Others

>  <Reference>
1. Yanuar A, et al. Bioinformation. 2014 Feb 19;10(2):52-5.

>  <Row>
B

>  <SMILES>
CC1CCC2(CCC3(C(=CCC4C3(CCC5C4(CCC(=O)C5(C)C)C)C)C2C1C)C)C(=O)O

>  <Target>
HIV-1 Protease Inhibitor

>  <Weight>
10.3mg

$$$$
Lab-1.sdf
  ChemDraw05232018482D

 18 21  0  0  0  0  0  0  0  0999 V2000
    2.1434    0.0000    0.0000 C   0  0  0  0  0  0  0  0  0  0  0  0
    1.4290    0.0000    0.0000 C   0  0  0  0  0  0  0  0  0  0  0  0
    0.7145    0.0000    0.0000 C   0  0  0  0  0  0  0  0  0  0  0  0
   -0.0000    0.0000    0.0000 C   0  0  0  0  0  0  0  0  0  0  0  0
   -0.0000    0.0000    0.0000 C   0  0  0  0  0  0  0  0  0  0  0  0
   -0.7145    0.0000    0.0000 C   0  0  0  0  0  0  0  0  0  0  0  0
   -1.4289    0.0000    0.0000 C   0  0  0  0  0  0  0  0  0  0  0  0
   -1.4289    0.0000    0.0000 N   0  0  0  0  0  0  0  0  0  0  0  0
   -0.7145    0.0000    0.0000 C   0  0  0  0  0  0  0  0  0  0  0  0
   -0.7145    0.0000    0.0000 C   0  0  0  0  0  0  0  0  0  0  0  0
   -1.4289    0.0000    0.0000 C   0  0  0  0  0  0  0  0  0  0  0  0
   -2.1434    0.0000    0.0000 C   0  0  0  0  0  0  0  0  0  0  0  0
   -2.1434    0.0000    0.0000 C   0  0  0  0  0  0  0  0  0  0  0  0
   -0.0000    0.0000    0.0000 C   0  0  0  0  0  0  0  0  0  0  0  0
    0.7145    0.0000    0.0000 N   0  0  0  0  0  0  0  0  0  0  0  0
    1.4290    0.0000    0.0000 C   0  0  0  0  0  0  0  0  0  0  0  0
    1.4290    0.0000    0.0000 O   0  0  0  0  0  0  0  0  0  0  0  0
    2.1434    0.0000    0.0000 C   0  0  0  0  0  0  0  0  0  0  0  0
  1  2  1  0      
  2  3  1  0      
  3  4  1  0      
  4  5  1  0      
  5  6  1  0      
  6  7  1  0      
  7  8  1  0      
  8  9  1  0      
  4  9  1  0      
  9 10  1  0      
 10 11  1  0      
 11 12  1  0      
 12 13  1  0      
  8 13  1  0      
 10 14  1  0      
 14 15  1  0      
  3 15  1  0      
 15 16  1  0      
 16 17  2  0      
 16 18  1  0      
  1 18  1  0      
M  END
>  <Bioactivity>
Sophoridine, a natural antiY drug, has been used in China for decades. A series of novel N-substituted sophoridinic acid derivatives were synthesized and evaluated for their cytotoxicity with 1 as the
 lead. The structure-activity relationship indicated that introduction of an aliphatic acyl on the nitrogen atom might significantly enhance the antiY activity. Among the compounds, 6b bearing bromoac
etyl side-chain afforded a potential effect against four human tumor cell lines (liver, colon, breast, and lung). The mechanism of action of 6b is to inhibit the activity of DNA topoisomerase I, follo
wed by the S-phase arrest and then cause apoptotic cell death, similar to that of its parent 1. We consider 6b promising for further antiY investigation.

>  <CAS>
6882-68-4

>  <Col>
6

>  <Formula>
C15H24N2O

>  <ID>
T3339

>  <Index>
655

>  <MOLENAME>
Sophoridine

>  <MolWt>
248.36

>  <Pathways>
DNA Damage/DNA Repair

>  <Plate>
PLATE 009

>  <QR code>
1151480880

>  <Receptor>
DNA topoisomerase I (top I)

>  <Reference>
1. Li X, et al. Bioorg Med Chem Lett. 2011, 21(18):5251-4.

>  <Row>
B

>  <SMILES>
C1CC2C3CCCN4C3C(CCC4)CN2C(=O)C1

>  <Target>
DNA topoisomerase I inhibitor

>  <Weight>
10.1mg

$$$$
Lab-1.sdf
  ChemDraw05232018482D

 22 25  0  0  0  0  0  0  0  0999 V2000
   -2.7516    0.0000    0.0000 C   0  0  0  0  0  0  0  0  0  0  0  0
   -1.9936    0.0000    0.0000 C   0  0  0  0  0  0  0  0  0  0  0  0
   -1.8272    0.0000    0.0000 O   0  0  0  0  0  0  0  0  0  0  0  0
   -1.0692    0.0000    0.0000 C   0  0  0  0  0  0  0  0  0  0  0  0
   -0.7682    0.0000    0.0000 C   0  0  0  0  0  0  0  0  0  0  0  0
    0.0198    0.0000    0.0000 C   0  0  0  0  0  0  0  0  0  0  0  0
   -0.0652    0.0000    0.0000 C   0  0  0  0  0  0  0  0  0  0  0  0
    0.4663    0.0000    0.0000 C   0  0  0  0  0  0  0  0  0  0  0  0
    1.1749    0.0000    0.0000 C   0  0  0  0  0  0  0  0  0  0  0  0
    1.2943    0.0000    0.0000 C   0  0  0  0  0  0  0  0  0  0  0  0
    0.7343    0.0000    0.0000 C   0  0  0  0  0  0  0  0  0  0  0  0
    0.4160    0.0000    0.0000 C   0  0  0  0  0  0  0  0  0  0  0  0
   -0.3840    0.0000    0.0000 O   0  0  0  0  0  0  0  0  0  0  0  0
    1.3192    0.0000    0.0000 O   0  0  0  0  0  0  0  0  0  0  0  0
    2.1042    0.0000    0.0000 C   0  0  0  0  0  0  0  0  0  0  0  0
    2.5907    0.0000    0.0000 C   0  0  0  0  0  0  0  0  0  0  0  0
    2.1232    0.0000    0.0000 C   0  0  0  0  0  0  0  0  0  0  0  0
    1.6215    0.0000    0.0000 O   0  0  0  0  0  0  0  0  0  0  0  0
    0.9746    0.0000    0.0000 O   0  0  0  0  0  0  0  0  0  0  0  0
    2.7516    0.0000    0.0000 C   0  0  0  0  0  0  0  0  0  0  0  0
    1.8300    0.0000    0.0000 C   0  0  0  0  0  0  0  0  0  0  0  0
   -1.3169    0.0000    0.0000 C   0  0  0  0  0  0  0  0  0  0  0  0
  1  2  1  0      
  2  3  1  0      
  3  4  1  0      
  4  5  1  0      
  5  6  1  0      
  6  7  1  0      
  7  8  1  0      
  8  9  1  0      
  9 10  1  0      
 10 11  1  0      
  6 11  1  0      
 11 12  1  0      
 12 13  1  0      
  4 13  1  0      
 12 14  1  0      
 14 15  1  0      
 15 16  1  0      
 16 17  1  0      
 10 17  1  0      
 15 18  1  0      
 18 19  1  0      
 11 19  1  0      
 15 20  1  0      
  9 21  1  0      
  5 22  1  0      
M  END
>  <Bioactivity>
Arteether, a new antimalarial drug

>  <CAS>
75887-54-6

>  <Col>
7

>  <Formula>
C17H28O5

>  <ID>
T3327

>  <Index>
656

>  <MOLENAME>
Arteether

>  <MolWt>
312.4

>  <Pathways>
Immunology/Inflammation

>  <Plate>
PLATE 009

>  <QR code>
1151480881

>  <Receptor>
CXCL10; CXCL9; CCL4; CCL5

>  <Reference>
1. Dwivedi H, et al. Parasitology. 2016, 143(12):1557-68.

>  <Row>
B

>  <SMILES>
CCOC1C(C2CCC(C3C24C(O1)OC(CC3)(OO4)C)C)C

>  <Target>
CXCL; CCL inhibitor

>  <Weight>
10.4mg

$$$$
Lab-1.sdf
  ChemDraw05232018482D

 61 69  0  0  0  0  0  0  0  0999 V2000
   -4.4088    0.0000    0.0000 C   0  0  0  0  0  0  0  0  0  0  0  0
   -4.2845    0.0000    0.0000 C   0  0  0  0  0  0  0  0  0  0  0  0
   -3.5516    0.0000    0.0000 C   0  0  0  0  0  0  0  0  0  0  0  0
   -3.6853    0.0000    0.0000 C   0  0  0  0  0  0  0  0  0  0  0  0
   -2.9524    0.0000    0.0000 C   0  0  0  0  0  0  0  0  0  0  0  0
   -2.3657    0.0000    0.0000 C   0  0  0  0  0  0  0  0  0  0  0  0
   -1.5421    0.0000    0.0000 C   0  0  0  0  0  0  0  0  0  0  0  0
   -1.1718    0.0000    0.0000 C   0  0  0  0  0  0  0  0  0  0  0  0
   -0.3482    0.0000    0.0000 C   0  0  0  0  0  0  0  0  0  0  0  0
    0.1051    0.0000    0.0000 C   0  0  0  0  0  0  0  0  0  0  0  0
    0.9287    0.0000    0.0000 C   0  0  0  0  0  0  0  0  0  0  0  0
    1.3820    0.0000    0.0000 C   0  0  0  0  0  0  0  0  0  0  0  0
    1.0118    0.0000    0.0000 C   0  0  0  0  0  0  0  0  0  0  0  0
    0.1882    0.0000    0.0000 C   0  0  0  0  0  0  0  0  0  0  0  0
   -0.2652    0.0000    0.0000 C   0  0  0  0  0  0  0  0  0  0  0  0
   -0.6354    0.0000    0.0000 C   0  0  0  0  0  0  0  0  0  0  0  0
   -1.0888    0.0000    0.0000 C   0  0  0  0  0  0  0  0  0  0  0  0
   -1.4591    0.0000    0.0000 C   0  0  0  0  0  0  0  0  0  0  0  0
   -2.2827    0.0000    0.0000 C   0  0  0  0  0  0  0  0  0  0  0  0
   -2.7360    0.0000    0.0000 C   0  0  0  0  0  0  0  0  0  0  0  0
   -3.1813    0.0000    0.0000 C   0  0  0  0  0  0  0  0  0  0  0  0
    2.2057    0.0000    0.0000 O   0  0  0  0  0  0  0  0  0  0  0  0
    2.6590    0.0000    0.0000 C   0  0  0  0  0  0  0  0  0  0  0  0
    3.4826    0.0000    0.0000 O   0  0  0  0  0  0  0  0  0  0  0  0
    3.9359    0.0000    0.0000 C   0  0  0  0  0  0  0  0  0  0  0  0
    4.7595    0.0000    0.0000 C   0  0  0  0  0  0  0  0  0  0  0  0
    5.1298    0.0000    0.0000 O   0  0  0  0  0  0  0  0  0  0  0  0
    3.5656    0.0000    0.0000 C   0  0  0  0  0  0  0  0  0  0  0  0
    4.0189    0.0000    0.0000 O   0  0  0  0  0  0  0  0  0  0  0  0
    4.8425    0.0000    0.0000 C   0  0  0  0  0  0  0  0  0  0  0  0
    5.2128    0.0000    0.0000 O   0  0  0  0  0  0  0  0  0  0  0  0
    6.0364    0.0000    0.0000 C   0  0  0  0  0  0  0  0  0  0  0  0
    6.4067    0.0000    0.0000 C   0  0  0  0  0  0  0  0  0  0  0  0
    6.4898    0.0000    0.0000 C   0  0  0  0  0  0  0  0  0  0  0  0
    7.3135    0.0000    0.0000 O   0  0  0  0  0  0  0  0  0  0  0  0
    6.1195    0.0000    0.0000 C   0  0  0  0  0  0  0  0  0  0  0  0
    6.5728    0.0000    0.0000 O   0  0  0  0  0  0  0  0  0  0  0  0
    5.2959    0.0000    0.0000 C   0  0  0  0  0  0  0  0  0  0  0  0
    4.9256    0.0000    0.0000 O   0  0  0  0  0  0  0  0  0  0  0  0
    2.7420    0.0000    0.0000 C   0  0  0  0  0  0  0  0  0  0  0  0
    2.3717    0.0000    0.0000 O   0  0  0  0  0  0  0  0  0  0  0  0
    2.2887    0.0000    0.0000 C   0  0  0  0  0  0  0  0  0  0  0  0
    1.4651    0.0000    0.0000 O   0  0  0  0  0  0  0  0  0  0  0  0
    1.0948    0.0000    0.0000 C   0  0  0  0  0  0  0  0  0  0  0  0
    1.5481    0.0000    0.0000 O   0  0  0  0  0  0  0  0  0  0  0  0
    1.1778    0.0000    0.0000 C   0  0  0  0  0  0  0  0  0  0  0  0
    1.6312    0.0000    0.0000 C   0  0  0  0  0  0  0  0  0  0  0  0
    0.3542    0.0000    0.0000 C   0  0  0  0  0  0  0  0  0  0  0  0
   -0.0161    0.0000    0.0000 O   0  0  0  0  0  0  0  0  0  0  0  0
   -0.0991    0.0000    0.0000 C   0  0  0  0  0  0  0  0  0  0  0  0
   -0.9227    0.0000    0.0000 O   0  0  0  0  0  0  0  0  0  0  0  0
    0.2712    0.0000    0.0000 C   0  0  0  0  0  0  0  0  0  0  0  0
   -0.1821    0.0000    0.0000 O   0  0  0  0  0  0  0  0  0  0  0  0
   -4.5009    0.0000    0.0000 O   0  0  0  0  0  0  0  0  0  0  0  0
   -4.8712    0.0000    0.0000 C   0  0  0  0  0  0  0  0  0  0  0  0
   -5.1624    0.0000    0.0000 C   0  0  0  0  0  0  0  0  0  0  0  0
   -5.9765    0.0000    0.0000 C   0  0  0  0  0  0  0  0  0  0  0  0
   -6.4994    0.0000    0.0000 C   0  0  0  0  0  0  0  0  0  0  0  0
   -7.3135    0.0000    0.0000 C   0  0  0  0  0  0  0  0  0  0  0  0
   -6.2082    0.0000    0.0000 C   0  0  0  0  0  0  0  0  0  0  0  0
   -5.3941    0.0000    0.0000 O   0  0  0  0  0  0  0  0  0  0  0  0
  1  2  1  0      
  2  3  1  0      
  3  4  1  0      
  4  5  1  0      
  5  6  1  0      
  6  7  1  0      
  7  8  1  0      
  8  9  1  0      
  9 10  2  0      
 10 11  1  0      
 11 12  1  0      
 12 13  1  0      
 13 14  1  0      
 14 15  1  0      
 10 15  1  0      
 15 16  1  0      
 15 17  1  0      
  7 17  1  0      
 17 18  1  0      
 18 19  1  0      
 19 20  1  0      
  3 20  1  0      
  6 20  1  0      
 20 21  1  0      
 12 22  1  0      
 22 23  1  0      
 23 24  1  0      
 24 25  1  0      
 25 26  1  0      
 26 27  1  0      
 25 28  1  0      
 28 29  1  0      
 29 30  1  0      
 30 31  1  0      
 31 32  1  0      
 32 33  1  0      
 32 34  1  0      
 34 35  1  0      
 34 36  1  0      
 36 37  1  0      
 36 38  1  0      
 30 38  1  0      
 38 39  1  0      
 28 40  1  0      
 40 41  1  0      
 40 42  1  0      
 23 42  1  0      
 42 43  1  0      
 43 44  1  0      
 44 45  1  0      
 45 46  1  0      
 46 47  1  0      
 46 48  1  0      
 48 49  1  0      
 48 50  1  0      
 50 51  1  0      
 50 52  1  0      
 44 52  1  0      
 52 53  1  0      
  4 54  1  0      
 54 55  1  0      
  2 55  1  0      
 55 56  1  0      
 56 57  1  0      
 57 58  1  0      
 58 59  1  0      
 58 60  1  0      
 60 61  1  0      
 55 61  1  0      
M  END
>  <Bioactivity>
Dioscin is a saponin extracted and isolated from Polygonatum Zanlanscianense Pamp, showing antitumor activities.

>  <CAS>
19057-60-4

>  <Col>
8

>  <Formula>
C45H72O16

>  <ID>
T6473

>  <Index>
657

>  <MOLENAME>
Dioscin

>  <MolWt>
869.04

>  <Pathways>
Others

>  <Plate>
PLATE 009

>  <QR code>
1151480882

>  <Receptor>
Others

>  <Reference>
1. Wang Z, et al. Biol Pharm Bull, 2001, 24(2), 159-162.

>  <Row>
B

>  <SMILES>
CC1C2C(CC3C4CC=C5CC(CCC5(C)C4CCC23C)OC2OC(CO)C(OC3OC(C)C(O)C(O)C3O)C(O)C2OC2OC(C)C(O)C(O)C2O)OC11CCC(C)CO1

>  <Target>
Others

>  <Weight>
10.1mg

$$$$
Lab-1.sdf
  ChemDraw05232018482D

 24 23  0  0  0  0  0  0  0  0999 V2000
   -4.1579    0.0000    0.0000 O   0  0  0  0  0  0  0  0  0  0  0  0
   -0.1289    0.0000    0.0000 O   0  0  0  0  0  0  0  0  0  0  0  0
    0.5856    0.0000    0.0000 C   0  0  0  0  0  0  0  0  0  0  0  0
    0.5856    0.0000    0.0000 C   0  0  0  0  0  0  0  0  0  0  0  0
   -0.1289    0.0000    0.0000 O   0  0  0  0  0  0  0  0  0  0  0  0
    1.3001    0.0000    0.0000 C   0  0  0  0  0  0  0  0  0  0  0  0
    1.3001    0.0000    0.0000 O   0  0  0  0  0  0  0  0  0  0  0  0
    0.5856    0.0000    0.0000 C   0  0  0  0  0  0  0  0  0  0  0  0
   -0.1289    0.0000    0.0000 O   0  0  0  0  0  0  0  0  0  0  0  0
   -0.8433    0.0000    0.0000 C   0  0  0  0  0  0  0  0  0  0  0  0
   -1.5578    0.0000    0.0000 C   0  0  0  0  0  0  0  0  0  0  0  0
   -2.2722    0.0000    0.0000 O   0  0  0  0  0  0  0  0  0  0  0  0
   -0.8433    0.0000    0.0000 C   0  0  0  0  0  0  0  0  0  0  0  0
   -1.5578    0.0000    0.0000 O   0  0  0  0  0  0  0  0  0  0  0  0
   -0.1289    0.0000    0.0000 C   0  0  0  0  0  0  0  0  0  0  0  0
   -0.1289    0.0000    0.0000 O   0  0  0  0  0  0  0  0  0  0  0  0
    0.5856    0.0000    0.0000 C   0  0  0  0  0  0  0  0  0  0  0  0
    1.3001    0.0000    0.0000 O   0  0  0  0  0  0  0  0  0  0  0  0
    2.0144    0.0000    0.0000 C   0  0  0  0  0  0  0  0  0  0  0  0
    2.0144    0.0000    0.0000 O   0  0  0  0  0  0  0  0  0  0  0  0
    2.7289    0.0000    0.0000 C   0  0  0  0  0  0  0  0  0  0  0  0
    2.7289    0.0000    0.0000 O   0  0  0  0  0  0  0  0  0  0  0  0
    3.4434    0.0000    0.0000 C   0  0  0  0  0  0  0  0  0  0  0  0
    4.1579    0.0000    0.0000 O   0  0  0  0  0  0  0  0  0  0  0  0
  2  3  1  0      
  3  4  1  0      
  4  5  1  0      
  4  6  1  0      
  6  7  1  0      
  7  8  1  0      
  8  9  1  0      
  9 10  1  0      
 10 11  1  0      
 11 12  1  0      
 10 13  1  0      
 13 14  1  0      
 13 15  1  0      
 15 16  1  0      
 15 17  1  0      
  8 17  1  0      
 17 18  1  0      
  6 19  1  0      
 19 20  1  0      
 19 21  1  0      
 21 22  1  0      
 21 23  1  0      
 23 24  2  0      
M  END
>  <Bioactivity>
A dextrodisaccharide from malt and starch. It is used as a sweetening agent and fermentable intermediate in brewing. (Grant and Hackh's Chemical Dictionary, 5th ed) 

>  <CAS>
6363-53-7

>  <Col>
9

>  <Formula>
C12H22011?H2O

>  <ID>
T0584L

>  <Index>
658

>  <MOLENAME>
D-(+)-Maltose monohydrate

>  <MolWt>
360.31

>  <Pathways>
Others

>  <Plate>
PLATE 009

>  <QR code>
1151480883

>  <Receptor>
Others

>  <Reference>
1. Sugawara K, et al. Anal Chim Acta. 2014 Mar 3;814:55-62. 

>  <Row>
B

>  <SMILES>
O.OCC(O)C(OC1OC(CO)C(O)C(O)C1O)C(O)C(O)C=O

>  <Target>
Others

>  <Weight>
10.4mg

$$$$
Lab-1.sdf
  ChemDraw05232018482D

 21 23  0  0  0  0  0  0  0  0999 V2000
   -1.0717    0.0000    0.0000 C   0  0  0  0  0  0  0  0  0  0  0  0
   -1.7862    0.0000    0.0000 C   0  0  0  0  0  0  0  0  0  0  0  0
   -2.5006    0.0000    0.0000 C   0  0  0  0  0  0  0  0  0  0  0  0
   -2.5006    0.0000    0.0000 C   0  0  0  0  0  0  0  0  0  0  0  0
   -1.7862    0.0000    0.0000 C   0  0  0  0  0  0  0  0  0  0  0  0
   -1.0717    0.0000    0.0000 C   0  0  0  0  0  0  0  0  0  0  0  0
   -0.3572    0.0000    0.0000 C   0  0  0  0  0  0  0  0  0  0  0  0
   -0.3572    0.0000    0.0000 C   0  0  0  0  0  0  0  0  0  0  0  0
    0.3572    0.0000    0.0000 C   0  0  0  0  0  0  0  0  0  0  0  0
    0.3572    0.0000    0.0000 O   0  0  0  0  0  0  0  0  0  0  0  0
    1.0717    0.0000    0.0000 C   0  0  0  0  0  0  0  0  0  0  0  0
    1.7862    0.0000    0.0000 C   0  0  0  0  0  0  0  0  0  0  0  0
    2.5007    0.0000    0.0000 C   0  0  0  0  0  0  0  0  0  0  0  0
    2.5007    0.0000    0.0000 C   0  0  0  0  0  0  0  0  0  0  0  0
    1.7862    0.0000    0.0000 C   0  0  0  0  0  0  0  0  0  0  0  0
    1.0717    0.0000    0.0000 C   0  0  0  0  0  0  0  0  0  0  0  0
    0.3572    0.0000    0.0000 O   0  0  0  0  0  0  0  0  0  0  0  0
    3.2151    0.0000    0.0000 O   0  0  0  0  0  0  0  0  0  0  0  0
    3.2151    0.0000    0.0000 O   0  0  0  0  0  0  0  0  0  0  0  0
    1.7862    0.0000    0.0000 O   0  0  0  0  0  0  0  0  0  0  0  0
   -3.2151    0.0000    0.0000 O   0  0  0  0  0  0  0  0  0  0  0  0
  1  2  2  0      
  2  3  1  0      
  3  4  2  0      
  4  5  1  0      
  5  6  2  0      
  1  6  1  0      
  6  7  1  0      
  7  8  2  0      
  8  9  1  0      
  9 10  2  0      
  9 11  1  0      
 11 12  2  0      
 12 13  1  0      
 13 14  2  0      
 14 15  1  0      
 15 16  2  0      
 11 16  1  0      
 16 17  1  0      
  7 17  1  0      
 14 18  1  0      
 13 19  1  0      
 12 20  1  0      
  3 21  1  0      
M  END
>  <Bioactivity>
Scutellarein Reduces Inflammatory Responses by Inhibiting Src Kinase Activity

>  <CAS>
529-53-3

>  <Col>
10

>  <Formula>
C15H10O6

>  <ID>
T3319

>  <Index>
659

>  <MOLENAME>
Scutellarein

>  <MolWt>
286.24

>  <Pathways>
Angiogenesis, Tyrosine Kinase/Adaptors

>  <Plate>
PLATE 009

>  <QR code>
1151480884

>  <Receptor>
Src

>  <Reference>
1. Sung NY, et al. Korean J Physiol Pharmacol. 2015 Sep;19(5):441-9.

>  <Row>
B

>  <SMILES>
C1=CC(=CC=C1C2=CC(=O)C3=C(C(=C(C=C3O2)O)O)O)O

>  <Target>
Src inhibitor

>  <Weight>
10.1mg

$$$$
Lab-1.sdf
  ChemDraw05232018482D

 35 40  0  0  0  0  0  0  0  0999 V2000
   -1.7893    0.0000    0.0000 C   0  0  0  0  0  0  0  0  0  0  0  0
   -2.0733    0.0000    0.0000 C   0  0  0  0  0  0  0  0  0  0  0  0
   -2.6051    0.0000    0.0000 C   0  0  0  0  0  0  0  0  0  0  0  0
   -2.3248    0.0000    0.0000 C   0  0  0  0  0  0  0  0  0  0  0  0
   -1.5127    0.0000    0.0000 C   0  0  0  0  0  0  0  0  0  0  0  0
   -0.9809    0.0000    0.0000 C   0  0  0  0  0  0  0  0  0  0  0  0
   -1.2612    0.0000    0.0000 C   0  0  0  0  0  0  0  0  0  0  0  0
   -0.7294    0.0000    0.0000 C   0  0  0  0  0  0  0  0  0  0  0  0
    0.0829    0.0000    0.0000 C   0  0  0  0  0  0  0  0  0  0  0  0
    0.3632    0.0000    0.0000 C   0  0  0  0  0  0  0  0  0  0  0  0
   -0.1688    0.0000    0.0000 C   0  0  0  0  0  0  0  0  0  0  0  0
   -0.7006    0.0000    0.0000 C   0  0  0  0  0  0  0  0  0  0  0  0
    0.1116    0.0000    0.0000 C   0  0  0  0  0  0  0  0  0  0  0  0
    0.9238    0.0000    0.0000 C   0  0  0  0  0  0  0  0  0  0  0  0
    1.4556    0.0000    0.0000 C   0  0  0  0  0  0  0  0  0  0  0  0
    1.1753    0.0000    0.0000 C   0  0  0  0  0  0  0  0  0  0  0  0
    1.8266    0.0000    0.0000 C   0  0  0  0  0  0  0  0  0  0  0  0
    2.5095    0.0000    0.0000 C   0  0  0  0  0  0  0  0  0  0  0  0
    2.2801    0.0000    0.0000 C   0  0  0  0  0  0  0  0  0  0  0  0
    2.7865    0.0000    0.0000 C   0  0  0  0  0  0  0  0  0  0  0  0
    3.4172    0.0000    0.0000 C   0  0  0  0  0  0  0  0  0  0  0  0
    3.1063    0.0000    0.0000 C   0  0  0  0  0  0  0  0  0  0  0  0
    2.2835    0.0000    0.0000 C   0  0  0  0  0  0  0  0  0  0  0  0
    2.0858    0.0000    0.0000 O   0  0  0  0  0  0  0  0  0  0  0  0
    1.7516    0.0000    0.0000 C   0  0  0  0  0  0  0  0  0  0  0  0
    1.2198    0.0000    0.0000 C   0  0  0  0  0  0  0  0  0  0  0  0
    2.3824    0.0000    0.0000 C   0  0  0  0  0  0  0  0  0  0  0  0
    1.1209    0.0000    0.0000 O   0  0  0  0  0  0  0  0  0  0  0  0
    3.3813    0.0000    0.0000 C   0  0  0  0  0  0  0  0  0  0  0  0
    3.2854    0.0000    0.0000 O   0  0  0  0  0  0  0  0  0  0  0  0
    0.9776    0.0000    0.0000 C   0  0  0  0  0  0  0  0  0  0  0  0
    1.8154    0.0000    0.0000 C   0  0  0  0  0  0  0  0  0  0  0  0
   -1.0097    0.0000    0.0000 O   0  0  0  0  0  0  0  0  0  0  0  0
   -3.4172    0.0000    0.0000 O   0  0  0  0  0  0  0  0  0  0  0  0
   -2.7868    0.0000    0.0000 C   0  0  0  0  0  0  0  0  0  0  0  0
  1  2  1  0      
  2  3  1  0      
  3  4  1  0      
  4  5  1  0      
  5  6  1  0      
  6  7  1  0      
  2  7  1  0      
  7  8  1  0      
  8  9  1  0      
  9 10  1  0      
 10 11  1  0      
  6 11  1  0      
 11 12  1  0      
  6 12  1  0      
 11 13  1  0      
 13 14  1  0      
 14 15  1  0      
 15 16  1  0      
 10 16  1  0      
 16 17  1  0      
 17 18  1  0      
 18 19  1  0      
 15 19  1  0      
 19 20  1  0      
 20 21  1  0      
 21 22  1  0      
 22 23  1  0      
 23 24  1  0      
 20 24  1  0      
 23 25  1  0      
 25 26  1  0      
 25 27  1  0      
 25 28  1  0      
 20 29  1  0      
 18 30  1  0      
 16 31  1  0      
 15 32  1  0      
  8 33  1  0      
  3 34  1  0      
  2 35  1  0      
M  END
>  <Bioactivity>
cycloastragenol is able to elongate telomeres, resulting in increased lifespan of the animals.

>  <CAS>
84605-18-5

>  <Col>
11

>  <Formula>
C30H50O5

>  <ID>
T3333

>  <Index>
660

>  <MOLENAME>
Cycloastragenol

>  <MolWt>
490.715

>  <Pathways>
DNA Damage/DNA Repair

>  <Plate>
PLATE 009

>  <QR code>
1151480885

>  <Receptor>
telomerase

>  <Reference>
1. de Jesus BB, et al. Aging Cell. 2011, 10 (4): 604?21. 

>  <Row>
B

>  <SMILES>
CC1(C(CCC23C1C(CC4C2(C3)CCC5(C4(CC(C5C6(CCC(O6)C(C)(C)O)C)O)C)C)O)O)C

>  <Target>
telomerase agonist

>  <Weight>
10.2mg

$$$$
Lab-1.sdf
  ChemDraw05232018482D

 23 24  0  0  0  0  0  0  0  0999 V2000
   -2.1433    0.0000    0.0000 C   0  0  0  0  0  0  0  0  0  0  0  0
   -1.4289    0.0000    0.0000 O   0  0  0  0  0  0  0  0  0  0  0  0
   -1.4289    0.0000    0.0000 C   0  0  0  0  0  0  0  0  0  0  0  0
   -0.7144    0.0000    0.0000 C   0  0  0  0  0  0  0  0  0  0  0  0
   -0.7144    0.0000    0.0000 C   0  0  0  0  0  0  0  0  0  0  0  0
    0.0000    0.0000    0.0000 C   0  0  0  0  0  0  0  0  0  0  0  0
    0.7145    0.0000    0.0000 C   0  0  0  0  0  0  0  0  0  0  0  0
    1.4289    0.0000    0.0000 C   0  0  0  0  0  0  0  0  0  0  0  0
    2.1434    0.0000    0.0000 C   0  0  0  0  0  0  0  0  0  0  0  0
    2.8579    0.0000    0.0000 C   0  0  0  0  0  0  0  0  0  0  0  0
    3.5722    0.0000    0.0000 O   0  0  0  0  0  0  0  0  0  0  0  0
    2.8579    0.0000    0.0000 C   0  0  0  0  0  0  0  0  0  0  0  0
    3.5722    0.0000    0.0000 O   0  0  0  0  0  0  0  0  0  0  0  0
    3.5722    0.0000    0.0000 C   0  0  0  0  0  0  0  0  0  0  0  0
    2.1434    0.0000    0.0000 C   0  0  0  0  0  0  0  0  0  0  0  0
    1.4289    0.0000    0.0000 C   0  0  0  0  0  0  0  0  0  0  0  0
   -1.4289    0.0000    0.0000 C   0  0  0  0  0  0  0  0  0  0  0  0
   -2.1433    0.0000    0.0000 C   0  0  0  0  0  0  0  0  0  0  0  0
   -2.8578    0.0000    0.0000 O   0  0  0  0  0  0  0  0  0  0  0  0
   -3.5722    0.0000    0.0000 C   0  0  0  0  0  0  0  0  0  0  0  0
   -2.1433    0.0000    0.0000 C   0  0  0  0  0  0  0  0  0  0  0  0
   -2.8578    0.0000    0.0000 O   0  0  0  0  0  0  0  0  0  0  0  0
   -3.5722    0.0000    0.0000 C   0  0  0  0  0  0  0  0  0  0  0  0
  1  2  1  0      
  2  3  1  0      
  3  4  2  0      
  4  5  1  0      
  6  5  1  4      
  6  7  2  0      
  7  8  1  0      
  8  9  2  0      
  9 10  1  0      
 10 11  1  0      
 10 12  2  0      
 12 13  1  0      
 13 14  1  0      
 12 15  1  0      
 15 16  2  0      
  8 16  1  0      
  5 17  2  0      
 17 18  1  0      
 18 19  1  0      
 19 20  1  0      
 18 21  2  0      
  3 21  1  0      
 21 22  1  0      
 22 23  1  0      
M  END
>  <Bioactivity>
Combretastatin A4 is a microtubule-targeting agent that binds ¦Â-tubulin with Kd of 0.4 ¦ÌM.Phase 3.

>  <CAS>
117048-59-6

>  <Col>
2

>  <Formula>
C18H20O5

>  <ID>
T6212

>  <Index>
661

>  <MOLENAME>
Combretastatin A4

>  <MolWt>
316.35

>  <Pathways>
Cell Cycle/Checkpoint

>  <Plate>
PLATE 009

>  <QR code>
1151480873

>  <Receptor>
¦Â-tubulin

>  <Reference>
1. Zheng S, et al. J Med Chem. 2014, 57(8), 3369-3381.

>  <Row>
C

>  <SMILES>
COC1=CC(C=CC2=CC(O)=C(OC)C=C2)=CC(OC)=C1OC

>  <Target>
Microtubule Associated inhibitor

>  <Weight>
10.1mg

$$$$
Lab-1.sdf
  ChemDraw05232018482D

 97107  0  0  0  0  0  0  0  0999 V2000
    6.6000    0.0000    0.0000 C   0  0  0  0  0  0  0  0  0  0  0  0
    6.1875    0.0000    0.0000 C   0  0  0  0  0  0  0  0  0  0  0  0
    6.6000    0.0000    0.0000 C   0  0  0  0  0  0  0  0  0  0  0  0
    6.1875    0.0000    0.0000 C   0  0  0  0  0  0  0  0  0  0  0  0
    5.3625    0.0000    0.0000 C   0  0  0  0  0  0  0  0  0  0  0  0
    4.9500    0.0000    0.0000 C   0  0  0  0  0  0  0  0  0  0  0  0
    5.3625    0.0000    0.0000 O   0  0  0  0  0  0  0  0  0  0  0  0
    4.1250    0.0000    0.0000 O   0  0  0  0  0  0  0  0  0  0  0  0
    3.7125    0.0000    0.0000 C   0  0  0  0  0  0  0  0  0  0  0  0
    4.1250    0.0000    0.0000 C   0  0  0  0  0  0  0  0  0  0  0  0
    3.7125    0.0000    0.0000 C   0  0  0  0  0  0  0  0  0  0  0  0
    2.8875    0.0000    0.0000 C   0  0  0  0  0  0  0  0  0  0  0  0
    2.4750    0.0000    0.0000 O   0  0  0  0  0  0  0  0  0  0  0  0
    2.8875    0.0000    0.0000 C   0  0  0  0  0  0  0  0  0  0  0  0
    2.4750    0.0000    0.0000 O   0  0  0  0  0  0  0  0  0  0  0  0
    1.6500    0.0000    0.0000 C   0  0  0  0  0  0  0  0  0  0  0  0
    1.2375    0.0000    0.0000 C   0  0  0  0  0  0  0  0  0  0  0  0
    0.4125    0.0000    0.0000 C   0  0  0  0  0  0  0  0  0  0  0  0
   -0.0000    0.0000    0.0000 C   0  0  0  0  0  0  0  0  0  0  0  0
    0.4125    0.0000    0.0000 C   0  0  0  0  0  0  0  0  0  0  0  0
    1.2375    0.0000    0.0000 C   0  0  0  0  0  0  0  0  0  0  0  0
    1.9371    0.0000    0.0000 C   0  0  0  0  0  0  0  0  0  0  0  0
    1.2663    0.0000    0.0000 C   0  0  0  0  0  0  0  0  0  0  0  0
    1.9947    0.0000    0.0000 O   0  0  0  0  0  0  0  0  0  0  0  0
   -0.0000    0.0000    0.0000 C   0  0  0  0  0  0  0  0  0  0  0  0
   -0.8250    0.0000    0.0000 C   0  0  0  0  0  0  0  0  0  0  0  0
   -1.2375    0.0000    0.0000 C   0  0  0  0  0  0  0  0  0  0  0  0
   -0.8250    0.0000    0.0000 C   0  0  0  0  0  0  0  0  0  0  0  0
   -1.2375    0.0000    0.0000 C   0  0  0  0  0  0  0  0  0  0  0  0
   -2.0625    0.0000    0.0000 C   0  0  0  0  0  0  0  0  0  0  0  0
   -2.4750    0.0000    0.0000 C   0  0  0  0  0  0  0  0  0  0  0  0
   -2.0625    0.0000    0.0000 C   0  0  0  0  0  0  0  0  0  0  0  0
   -2.4750    0.0000    0.0000 C   0  0  0  0  0  0  0  0  0  0  0  0
   -3.3000    0.0000    0.0000 C   0  0  0  0  0  0  0  0  0  0  0  0
   -3.7125    0.0000    0.0000 C   0  0  0  0  0  0  0  0  0  0  0  0
   -3.3000    0.0000    0.0000 C   0  0  0  0  0  0  0  0  0  0  0  0
   -3.7125    0.0000    0.0000 C   0  0  0  0  0  0  0  0  0  0  0  0
   -4.5375    0.0000    0.0000 C   0  0  0  0  0  0  0  0  0  0  0  0
   -4.9500    0.0000    0.0000 C   0  0  0  0  0  0  0  0  0  0  0  0
   -4.5375    0.0000    0.0000 C   0  0  0  0  0  0  0  0  0  0  0  0
   -4.5663    0.0000    0.0000 C   0  0  0  0  0  0  0  0  0  0  0  0
   -5.2372    0.0000    0.0000 C   0  0  0  0  0  0  0  0  0  0  0  0
   -4.1250    0.0000    0.0000 C   0  0  0  0  0  0  0  0  0  0  0  0
   -3.7125    0.0000    0.0000 O   0  0  0  0  0  0  0  0  0  0  0  0
   -4.9500    0.0000    0.0000 O   0  0  0  0  0  0  0  0  0  0  0  0
   -5.3625    0.0000    0.0000 C   0  0  0  0  0  0  0  0  0  0  0  0
   -6.1875    0.0000    0.0000 C   0  0  0  0  0  0  0  0  0  0  0  0
   -6.6000    0.0000    0.0000 C   0  0  0  0  0  0  0  0  0  0  0  0
   -6.1875    0.0000    0.0000 C   0  0  0  0  0  0  0  0  0  0  0  0
   -5.3625    0.0000    0.0000 C   0  0  0  0  0  0  0  0  0  0  0  0
   -4.9500    0.0000    0.0000 O   0  0  0  0  0  0  0  0  0  0  0  0
   -4.9500    0.0000    0.0000 C   0  0  0  0  0  0  0  0  0  0  0  0
   -5.3625    0.0000    0.0000 O   0  0  0  0  0  0  0  0  0  0  0  0
   -4.9500    0.0000    0.0000 C   0  0  0  0  0  0  0  0  0  0  0  0
   -5.3625    0.0000    0.0000 C   0  0  0  0  0  0  0  0  0  0  0  0
   -4.9500    0.0000    0.0000 C   0  0  0  0  0  0  0  0  0  0  0  0
   -4.1250    0.0000    0.0000 C   0  0  0  0  0  0  0  0  0  0  0  0
   -3.7125    0.0000    0.0000 C   0  0  0  0  0  0  0  0  0  0  0  0
   -4.1250    0.0000    0.0000 O   0  0  0  0  0  0  0  0  0  0  0  0
   -2.8875    0.0000    0.0000 C   0  0  0  0  0  0  0  0  0  0  0  0
   -2.4750    0.0000    0.0000 O   0  0  0  0  0  0  0  0  0  0  0  0
   -3.7125    0.0000    0.0000 O   0  0  0  0  0  0  0  0  0  0  0  0
   -5.3625    0.0000    0.0000 O   0  0  0  0  0  0  0  0  0  0  0  0
   -6.1875    0.0000    0.0000 O   0  0  0  0  0  0  0  0  0  0  0  0
   -6.6000    0.0000    0.0000 O   0  0  0  0  0  0  0  0  0  0  0  0
   -7.4250    0.0000    0.0000 O   0  0  0  0  0  0  0  0  0  0  0  0
   -6.6000    0.0000    0.0000 O   0  0  0  0  0  0  0  0  0  0  0  0
   -1.6500    0.0000    0.0000 C   0  0  0  0  0  0  0  0  0  0  0  0
   -1.1513    0.0000    0.0000 C   0  0  0  0  0  0  0  0  0  0  0  0
   -0.4125    0.0000    0.0000 C   0  0  0  0  0  0  0  0  0  0  0  0
    4.1250    0.0000    0.0000 O   0  0  0  0  0  0  0  0  0  0  0  0
    3.7125    0.0000    0.0000 C   0  0  0  0  0  0  0  0  0  0  0  0
    4.1250    0.0000    0.0000 C   0  0  0  0  0  0  0  0  0  0  0  0
    3.7125    0.0000    0.0000 C   0  0  0  0  0  0  0  0  0  0  0  0
    2.8875    0.0000    0.0000 C   0  0  0  0  0  0  0  0  0  0  0  0
    2.4750    0.0000    0.0000 C   0  0  0  0  0  0  0  0  0  0  0  0
    2.8875    0.0000    0.0000 O   0  0  0  0  0  0  0  0  0  0  0  0
    1.6500    0.0000    0.0000 C   0  0  0  0  0  0  0  0  0  0  0  0
    1.2375    0.0000    0.0000 O   0  0  0  0  0  0  0  0  0  0  0  0
    2.4750    0.0000    0.0000 O   0  0  0  0  0  0  0  0  0  0  0  0
    4.1250    0.0000    0.0000 O   0  0  0  0  0  0  0  0  0  0  0  0
    4.7924    0.0000    0.0000 O   0  0  0  0  0  0  0  0  0  0  0  0
    4.9500    0.0000    0.0000 O   0  0  0  0  0  0  0  0  0  0  0  0
    5.3625    0.0000    0.0000 C   0  0  0  0  0  0  0  0  0  0  0  0
    6.1875    0.0000    0.0000 C   0  0  0  0  0  0  0  0  0  0  0  0
    6.6000    0.0000    0.0000 C   0  0  0  0  0  0  0  0  0  0  0  0
    6.1875    0.0000    0.0000 C   0  0  0  0  0  0  0  0  0  0  0  0
    5.3625    0.0000    0.0000 C   0  0  0  0  0  0  0  0  0  0  0  0
    4.9500    0.0000    0.0000 O   0  0  0  0  0  0  0  0  0  0  0  0
    4.9500    0.0000    0.0000 C   0  0  0  0  0  0  0  0  0  0  0  0
    5.3625    0.0000    0.0000 O   0  0  0  0  0  0  0  0  0  0  0  0
    6.6000    0.0000    0.0000 O   0  0  0  0  0  0  0  0  0  0  0  0
    7.4250    0.0000    0.0000 O   0  0  0  0  0  0  0  0  0  0  0  0
    6.9411    0.0000    0.0000 O   0  0  0  0  0  0  0  0  0  0  0  0
    4.9500    0.0000    0.0000 O   0  0  0  0  0  0  0  0  0  0  0  0
    6.6000    0.0000    0.0000 O   0  0  0  0  0  0  0  0  0  0  0  0
    7.4250    0.0000    0.0000 O   0  0  0  0  0  0  0  0  0  0  0  0
  1  2  1  0      
  2  3  1  0      
  3  4  1  0      
  4  5  1  0      
  5  6  1  0      
  6  7  1  0      
  2  7  1  0      
  6  8  1  0      
  8  9  1  0      
  9 10  1  0      
 10 11  1  0      
 11 12  1  0      
 12 13  1  0      
 13 14  1  0      
  9 14  1  0      
 14 15  1  0      
 15 16  1  0      
 16 17  1  0      
 17 18  1  0      
 18 19  1  0      
 19 20  1  0      
 20 21  1  0      
 16 21  1  0      
 21 22  1  0      
 21 23  1  0      
 23 24  1  0      
 20 25  1  0      
 25 26  1  0      
 26 27  1  0      
 27 28  1  0      
 19 28  1  0      
 28 29  1  0      
 29 30  1  0      
 30 31  2  0      
 31 32  1  0      
 27 32  1  0      
 32 33  1  0      
 33 34  1  0      
 34 35  1  0      
 35 36  1  0      
 31 36  1  0      
 36 37  1  0      
 37 38  1  0      
 38 39  1  0      
 39 40  1  0      
 35 40  1  0      
 38 41  1  0      
 38 42  1  0      
 35 43  1  0      
 43 44  2  0      
 43 45  1  0      
 45 46  1  0      
 46 47  1  0      
 47 48  1  0      
 48 49  1  0      
 49 50  1  0      
 50 51  1  0      
 46 51  1  0      
 50 52  1  0      
 52 53  1  0      
 53 54  1  0      
 54 55  1  0      
 55 56  1  0      
 56 57  1  0      
 57 58  1  0      
 58 59  1  0      
 54 59  1  0      
 58 60  1  0      
 60 61  1  0      
 57 62  1  0      
 56 63  1  0      
 55 64  1  0      
 49 65  1  0      
 48 66  1  0      
 47 67  1  0      
 32 68  1  0      
 27 69  1  0      
 19 70  1  0      
 11 71  1  0      
 71 72  1  0      
 72 73  1  0      
 73 74  1  0      
 74 75  1  0      
 75 76  1  0      
 76 77  1  0      
 72 77  1  0      
 76 78  1  0      
 78 79  1  0      
 75 80  1  0      
 74 81  1  0      
 73 82  1  0      
 10 83  1  0      
 83 84  1  0      
 84 85  1  0      
 85 86  1  0      
 86 87  1  0      
 87 88  1  0      
 88 89  1  0      
 84 89  1  0      
 88 90  1  0      
 90 91  1  0      
 87 92  1  0      
 86 93  1  0      
 85 94  1  0      
  5 95  1  0      
  4 96  1  0      
  3 97  1  0      
M  END
>  <Bioactivity>
Macranthoidin B is a major bioactive saponin in rat plasma after oral administration of extraction of saponins from Flos Lonicerae.

>  <CAS>
136849-88-2

>  <Col>
3

>  <Formula>
C65H106O32

>  <ID>
T3367

>  <Index>
662

>  <MOLENAME>
Macranthoidin B

>  <MolWt>
1399.53

>  <Pathways>
Others

>  <Plate>
PLATE 009

>  <QR code>
1151480872

>  <Receptor>
Others

>  <Reference>
1.  Chen CY, et al.J Chromatogr B Analyt Technol Biomed Life Sci. 2009 Jan 15;877(3):159-65.;

>  <Row>
C

>  <SMILES>
CC1C(C(C(C(O1)OC2C(C(COC2OC3CCC4(C(C3(C)CO)CCC5(C4CC=C6C5(CCC7(C6CC(CC7)(C)C)C(=O)OC8C(C(C(C(O8)COC9C(C(C(C(O9)CO)O)O)O)O)O)O)C)C)C)OC1C(C(C(C(O1)CO)O)O)O)OC1C(C(C(C(O1)CO)O)O)O)O)O)O

>  <Target>
Others

>  <Weight>
10.2mg

$$$$
Lab-1.sdf
  ChemDraw05232018482D

 17 19  0  0  0  0  0  0  0  0999 V2000
   -0.0797    0.0000    0.0000 C   0  0  0  0  0  0  0  0  0  0  0  0
    0.6347    0.0000    0.0000 N   0  0  0  0  0  0  0  0  0  0  0  0
    0.6347    0.0000    0.0000 C   0  0  0  0  0  0  0  0  0  0  0  0
    1.3492    0.0000    0.0000 N   0  0  0  0  0  0  0  0  0  0  0  0
    1.3492    0.0000    0.0000 C   0  0  0  0  0  0  0  0  0  0  0  0
    0.6347    0.0000    0.0000 N   0  0  0  0  0  0  0  0  0  0  0  0
   -0.0797    0.0000    0.0000 C   0  0  0  0  0  0  0  0  0  0  0  0
   -0.0797    0.0000    0.0000 C   0  0  0  0  0  0  0  0  0  0  0  0
   -0.8644    0.0000    0.0000 N   0  0  0  0  0  0  0  0  0  0  0  0
   -1.3492    0.0000    0.0000 C   0  0  0  0  0  0  0  0  0  0  0  0
   -0.8644    0.0000    0.0000 N   0  0  0  0  0  0  0  0  0  0  0  0
   -0.0797    0.0000    0.0000 C   0  0  0  0  0  0  0  0  0  0  0  0
   -0.7942    0.0000    0.0000 C   0  0  0  0  0  0  0  0  0  0  0  0
   -0.7942    0.0000    0.0000 C   0  0  0  0  0  0  0  0  0  0  0  0
   -0.0797    0.0000    0.0000 C   0  0  0  0  0  0  0  0  0  0  0  0
    0.6347    0.0000    0.0000 C   0  0  0  0  0  0  0  0  0  0  0  0
    0.6347    0.0000    0.0000 C   0  0  0  0  0  0  0  0  0  0  0  0
  1  2  1  0      
  2  3  1  0      
  3  4  2  0      
  4  5  1  0      
  5  6  2  0      
  6  7  1  0      
  7  8  2  0      
  3  8  1  0      
  8  9  1  0      
  9 10  1  0      
 10 11  2  0      
  7 11  1  0      
  1 12  1  0      
 12 13  2  0      
 13 14  1  0      
 14 15  2  0      
 15 16  1  0      
 16 17  2  0      
 12 17  1  0      
M  END
>  <Bioactivity>
6-Benzylaminopurine, benzyl adenine or BAP is a first-generation synthetic cytokinin that elicits plant growth and development responses, setting blossoms and stimulating fruit richness by stimulating
 cell division. It is an inhibitor of respiratory kinase in plants, and increases post-harvest life of green vegetables. 

>  <CAS>
1214-39-7

>  <Col>
4

>  <Formula>
C12H11N5

>  <ID>
T1004

>  <Index>
663

>  <MOLENAME>
Benzyladenine

>  <MolWt>
225.25

>  <Pathways>
Others

>  <Plate>
PLATE 009

>  <QR code>
1151480871

>  <Receptor>
plants respiratory kinase

>  <Reference>
1. Zhang Y, et al. Food Chem. 2015 Nov 15;187:210-7. 

>  <Row>
C

>  <SMILES>
C(NC1=NC=NC2=C1NC=N2)C1=CC=CC=C1

>  <Target>
Others

>  <Weight>
9.9mg

$$$$
Lab-1.sdf
  ChemDraw05232018482D

 25 27  0  0  0  0  0  0  0  0999 V2000
   -3.2151    0.0000    0.0000 C   0  0  0  0  0  0  0  0  0  0  0  0
   -3.2151    0.0000    0.0000 O   0  0  0  0  0  0  0  0  0  0  0  0
   -2.5006    0.0000    0.0000 C   0  0  0  0  0  0  0  0  0  0  0  0
   -2.5006    0.0000    0.0000 C   0  0  0  0  0  0  0  0  0  0  0  0
   -1.7862    0.0000    0.0000 C   0  0  0  0  0  0  0  0  0  0  0  0
   -1.0717    0.0000    0.0000 C   0  0  0  0  0  0  0  0  0  0  0  0
   -1.0717    0.0000    0.0000 C   0  0  0  0  0  0  0  0  0  0  0  0
   -1.7862    0.0000    0.0000 C   0  0  0  0  0  0  0  0  0  0  0  0
   -0.3572    0.0000    0.0000 C   0  0  0  0  0  0  0  0  0  0  0  0
   -0.3572    0.0000    0.0000 C   0  0  0  0  0  0  0  0  0  0  0  0
    0.3572    0.0000    0.0000 C   0  0  0  0  0  0  0  0  0  0  0  0
    0.3572    0.0000    0.0000 O   0  0  0  0  0  0  0  0  0  0  0  0
    1.0717    0.0000    0.0000 C   0  0  0  0  0  0  0  0  0  0  0  0
    1.7862    0.0000    0.0000 C   0  0  0  0  0  0  0  0  0  0  0  0
    2.5007    0.0000    0.0000 C   0  0  0  0  0  0  0  0  0  0  0  0
    2.5007    0.0000    0.0000 C   0  0  0  0  0  0  0  0  0  0  0  0
    1.7862    0.0000    0.0000 C   0  0  0  0  0  0  0  0  0  0  0  0
    1.0717    0.0000    0.0000 C   0  0  0  0  0  0  0  0  0  0  0  0
    0.3572    0.0000    0.0000 O   0  0  0  0  0  0  0  0  0  0  0  0
    3.2151    0.0000    0.0000 O   0  0  0  0  0  0  0  0  0  0  0  0
    3.2151    0.0000    0.0000 O   0  0  0  0  0  0  0  0  0  0  0  0
    3.2151    0.0000    0.0000 C   0  0  0  0  0  0  0  0  0  0  0  0
    1.7862    0.0000    0.0000 O   0  0  0  0  0  0  0  0  0  0  0  0
   -3.2151    0.0000    0.0000 O   0  0  0  0  0  0  0  0  0  0  0  0
   -3.2151    0.0000    0.0000 C   0  0  0  0  0  0  0  0  0  0  0  0
  1  2  1  0      
  2  3  1  0      
  3  4  2  0      
  4  5  1  0      
  5  6  2  0      
  6  7  1  0      
  7  8  2  0      
  3  8  1  0      
  6  9  1  0      
  9 10  2  0      
 10 11  1  0      
 11 12  2  0      
 11 13  1  0      
 13 14  2  0      
 14 15  1  0      
 15 16  2  0      
 16 17  1  0      
 17 18  2  0      
 13 18  1  0      
 18 19  1  0      
  9 19  1  0      
 16 20  1  0      
 15 21  1  0      
 21 22  1  0      
 14 23  1  0      
  4 24  1  0      
 24 25  1  0      
M  END
>  <Bioactivity>
Eupatilin, a flavone derived from Artemisia princepsPampanini, has various pharmacological activities, including antioxidant, anti-tumor, and anti-inflammatory capacities.

>  <CAS>
22368-21-4

>  <Col>
5

>  <Formula>
C18H16O7

>  <ID>
T3362

>  <Index>
664

>  <MOLENAME>
Eupatilin

>  <MolWt>
344.32

>  <Pathways>
Others

>  <Plate>
PLATE 009

>  <QR code>
1151480870

>  <Receptor>
Others

>  <Reference>
1.  Li YY, et al. Oncol Lett. 2015 Oct;10(4):2505-2510.;

>  <Row>
C

>  <SMILES>
COC1=C(C=C(C=C1)C2=CC(=O)C3=C(C(=C(C=C3O2)O)OC)O)OC

>  <Target>
Others

>  <Weight>
10.3mg

$$$$
Lab-1.sdf
  ChemDraw05232018482D

 23 27  0  0  0  0  0  0  0  0999 V2000
   -2.6328    0.0000    0.0000 C   0  0  0  0  0  0  0  0  0  0  0  0
   -1.8172    0.0000    0.0000 O   0  0  0  0  0  0  0  0  0  0  0  0
   -1.5168    0.0000    0.0000 C   0  0  0  0  0  0  0  0  0  0  0  0
   -1.9400    0.0000    0.0000 C   0  0  0  0  0  0  0  0  0  0  0  0
   -1.4387    0.0000    0.0000 C   0  0  0  0  0  0  0  0  0  0  0  0
   -2.1127    0.0000    0.0000 C   0  0  0  0  0  0  0  0  0  0  0  0
   -2.7734    0.0000    0.0000 C   0  0  0  0  0  0  0  0  0  0  0  0
   -2.5078    0.0000    0.0000 C   0  0  0  0  0  0  0  0  0  0  0  0
   -1.6829    0.0000    0.0000 N   0  0  0  0  0  0  0  0  0  0  0  0
   -1.2190    0.0000    0.0000 C   0  0  0  0  0  0  0  0  0  0  0  0
   -0.3964    0.0000    0.0000 C   0  0  0  0  0  0  0  0  0  0  0  0
    0.1655    0.0000    0.0000 C   0  0  0  0  0  0  0  0  0  0  0  0
    0.9331    0.0000    0.0000 C   0  0  0  0  0  0  0  0  0  0  0  0
    1.5788    0.0000    0.0000 C   0  0  0  0  0  0  0  0  0  0  0  0
    1.4569    0.0000    0.0000 C   0  0  0  0  0  0  0  0  0  0  0  0
    0.6893    0.0000    0.0000 C   0  0  0  0  0  0  0  0  0  0  0  0
    0.0436    0.0000    0.0000 C   0  0  0  0  0  0  0  0  0  0  0  0
   -0.6703    0.0000    0.0000 C   0  0  0  0  0  0  0  0  0  0  0  0
   -0.7186    0.0000    0.0000 C   0  0  0  0  0  0  0  0  0  0  0  0
   -0.0807    0.0000    0.0000 O   0  0  0  0  0  0  0  0  0  0  0  0
    2.1952    0.0000    0.0000 O   0  0  0  0  0  0  0  0  0  0  0  0
    2.7734    0.0000    0.0000 C   0  0  0  0  0  0  0  0  0  0  0  0
    2.3925    0.0000    0.0000 O   0  0  0  0  0  0  0  0  0  0  0  0
  1  2  1  0      
  2  3  1  0      
  3  4  2  0      
  4  5  1  0      
  5  6  1  0      
  6  7  1  0      
  7  8  1  0      
  8  9  1  0      
  5  9  1  0      
  9 10  1  0      
 10 11  1  0      
 11 12  1  0      
 12 13  2  0      
 13 14  1  0      
 14 15  2  0      
 15 16  1  0      
 16 17  2  0      
 12 17  1  0      
 17 18  1  0      
  5 18  1  0      
 18 19  1  0      
  3 19  1  0      
 19 20  1  0      
 15 21  1  0      
 21 22  1  0      
 22 23  1  0      
 14 23  1  0      
M  END
>  <Bioactivity>
Cephalotaxine is an antiviral as well as antitumor agent.

>  <CAS>
24316-19-6

>  <Col>
6

>  <Formula>
C18H21NO4

>  <ID>
T3366

>  <Index>
665

>  <MOLENAME>
Cephalotaxine

>  <MolWt>
315.37

>  <Pathways>
Microbiology &amp; Virology;

>  <Plate>
PLATE 009

>  <QR code>
1151480869

>  <Receptor>
Antiviral; 

>  <Reference>
1. M A Sells, et al. J Virol. 1988 Aug; 62(8): 2836?2844.;

>  <Row>
C

>  <SMILES>
COC1=CC23CCCN2CCC4=CC5=C(C=C4C3C1O)OCO5

>  <Target>
Antiviral; 

>  <Weight>
10.3mg

$$$$
Lab-1.sdf
  ChemDraw05232018482D

 53 59  0  0  0  0  0  0  0  0999 V2000
    5.5061    0.0000    0.0000 C   0  0  0  0  0  0  0  0  0  0  0  0
    5.0936    0.0000    0.0000 C   0  0  0  0  0  0  0  0  0  0  0  0
    5.5061    0.0000    0.0000 C   0  0  0  0  0  0  0  0  0  0  0  0
    5.0936    0.0000    0.0000 C   0  0  0  0  0  0  0  0  0  0  0  0
    4.2686    0.0000    0.0000 C   0  0  0  0  0  0  0  0  0  0  0  0
    3.8561    0.0000    0.0000 C   0  0  0  0  0  0  0  0  0  0  0  0
    4.2686    0.0000    0.0000 O   0  0  0  0  0  0  0  0  0  0  0  0
    3.0311    0.0000    0.0000 O   0  0  0  0  0  0  0  0  0  0  0  0
    2.6186    0.0000    0.0000 C   0  0  0  0  0  0  0  0  0  0  0  0
    3.0311    0.0000    0.0000 C   0  0  0  0  0  0  0  0  0  0  0  0
    2.6186    0.0000    0.0000 C   0  0  0  0  0  0  0  0  0  0  0  0
    1.7936    0.0000    0.0000 C   0  0  0  0  0  0  0  0  0  0  0  0
    1.3811    0.0000    0.0000 O   0  0  0  0  0  0  0  0  0  0  0  0
    1.7936    0.0000    0.0000 C   0  0  0  0  0  0  0  0  0  0  0  0
    1.3811    0.0000    0.0000 O   0  0  0  0  0  0  0  0  0  0  0  0
    0.5561    0.0000    0.0000 C   0  0  0  0  0  0  0  0  0  0  0  0
    0.1436    0.0000    0.0000 C   0  0  0  0  0  0  0  0  0  0  0  0
   -0.6814    0.0000    0.0000 C   0  0  0  0  0  0  0  0  0  0  0  0
   -1.0939    0.0000    0.0000 C   0  0  0  0  0  0  0  0  0  0  0  0
   -0.6814    0.0000    0.0000 C   0  0  0  0  0  0  0  0  0  0  0  0
    0.1436    0.0000    0.0000 C   0  0  0  0  0  0  0  0  0  0  0  0
    0.8432    0.0000    0.0000 C   0  0  0  0  0  0  0  0  0  0  0  0
    0.1724    0.0000    0.0000 C   0  0  0  0  0  0  0  0  0  0  0  0
    0.9008    0.0000    0.0000 O   0  0  0  0  0  0  0  0  0  0  0  0
   -1.0939    0.0000    0.0000 C   0  0  0  0  0  0  0  0  0  0  0  0
   -1.9189    0.0000    0.0000 C   0  0  0  0  0  0  0  0  0  0  0  0
   -2.3314    0.0000    0.0000 C   0  0  0  0  0  0  0  0  0  0  0  0
   -1.9189    0.0000    0.0000 C   0  0  0  0  0  0  0  0  0  0  0  0
   -2.3314    0.0000    0.0000 C   0  0  0  0  0  0  0  0  0  0  0  0
   -3.1564    0.0000    0.0000 C   0  0  0  0  0  0  0  0  0  0  0  0
   -3.5689    0.0000    0.0000 C   0  0  0  0  0  0  0  0  0  0  0  0
   -3.1564    0.0000    0.0000 C   0  0  0  0  0  0  0  0  0  0  0  0
   -3.5689    0.0000    0.0000 C   0  0  0  0  0  0  0  0  0  0  0  0
   -4.3939    0.0000    0.0000 C   0  0  0  0  0  0  0  0  0  0  0  0
   -4.8064    0.0000    0.0000 C   0  0  0  0  0  0  0  0  0  0  0  0
   -4.3939    0.0000    0.0000 C   0  0  0  0  0  0  0  0  0  0  0  0
   -4.8064    0.0000    0.0000 C   0  0  0  0  0  0  0  0  0  0  0  0
   -5.6314    0.0000    0.0000 C   0  0  0  0  0  0  0  0  0  0  0  0
   -6.0439    0.0000    0.0000 C   0  0  0  0  0  0  0  0  0  0  0  0
   -5.6314    0.0000    0.0000 C   0  0  0  0  0  0  0  0  0  0  0  0
   -5.6602    0.0000    0.0000 C   0  0  0  0  0  0  0  0  0  0  0  0
   -6.3311    0.0000    0.0000 C   0  0  0  0  0  0  0  0  0  0  0  0
   -5.2189    0.0000    0.0000 C   0  0  0  0  0  0  0  0  0  0  0  0
   -6.0439    0.0000    0.0000 O   0  0  0  0  0  0  0  0  0  0  0  0
   -4.8064    0.0000    0.0000 O   0  0  0  0  0  0  0  0  0  0  0  0
   -2.7439    0.0000    0.0000 C   0  0  0  0  0  0  0  0  0  0  0  0
   -2.2452    0.0000    0.0000 C   0  0  0  0  0  0  0  0  0  0  0  0
   -1.5064    0.0000    0.0000 C   0  0  0  0  0  0  0  0  0  0  0  0
    3.0311    0.0000    0.0000 O   0  0  0  0  0  0  0  0  0  0  0  0
    3.8561    0.0000    0.0000 O   0  0  0  0  0  0  0  0  0  0  0  0
    3.8561    0.0000    0.0000 O   0  0  0  0  0  0  0  0  0  0  0  0
    5.5061    0.0000    0.0000 O   0  0  0  0  0  0  0  0  0  0  0  0
    6.3311    0.0000    0.0000 O   0  0  0  0  0  0  0  0  0  0  0  0
  1  2  1  0      
  2  3  1  0      
  3  4  1  0      
  4  5  1  0      
  5  6  1  0      
  6  7  1  0      
  2  7  1  0      
  6  8  1  0      
  8  9  1  0      
  9 10  1  0      
 10 11  1  0      
 11 12  1  0      
 12 13  1  0      
 13 14  1  0      
  9 14  1  0      
 14 15  1  0      
 15 16  1  0      
 16 17  1  0      
 17 18  1  0      
 18 19  1  0      
 19 20  1  0      
 20 21  1  0      
 16 21  1  0      
 21 22  1  0      
 21 23  1  0      
 23 24  1  0      
 20 25  1  0      
 25 26  1  0      
 26 27  1  0      
 27 28  1  0      
 19 28  1  0      
 28 29  1  0      
 29 30  1  0      
 30 31  2  0      
 31 32  1  0      
 27 32  1  0      
 32 33  1  0      
 33 34  1  0      
 34 35  1  0      
 35 36  1  0      
 31 36  1  0      
 36 37  1  0      
 37 38  1  0      
 38 39  1  0      
 39 40  1  0      
 35 40  1  0      
 38 41  1  0      
 38 42  1  0      
 35 43  1  0      
 43 44  2  0      
 43 45  1  0      
 32 46  1  0      
 27 47  1  0      
 19 48  1  0      
 11 49  1  0      
 10 50  1  0      
  5 51  1  0      
  4 52  1  0      
  3 53  1  0      
M  END
>  <Bioactivity>
Alpha-hederin is a water-soluble pentacyclic triterpenoid saponin found in the seeds of Nigella sativa. ¦Á-Hederin has been shown to enhance the cytotoxicity of an established chemotherapeutic agent, 
5-fluorouracil, in an animal model of colon carcinoma.

>  <CAS>
27013-91-8

>  <Col>
7

>  <Formula>
C41H66O12

>  <ID>
T3368

>  <Index>
666

>  <MOLENAME>
Alpha-Hederin

>  <MolWt>
750.97

>  <Pathways>
Others

>  <Plate>
PLATE 009

>  <QR code>
1151480868

>  <Receptor>
Others

>  <Reference>
1. Randhawa MA, et al. Am J Chin Med. 2011;39(6):1075-91.;

>  <Row>
C

>  <SMILES>
CC1C(C(C(C(O1)OC2C(C(COC2OC3CCC4(C(C3(C)CO)CCC5(C4CC=C6C5(CCC7(C6CC(CC7)(C)C)C(=O)O)C)C)C)O)O)O)O)O

>  <Target>
Others

>  <Weight>
10.3mg

$$$$
Lab-1.sdf
  ChemDraw05232018482D

 52 57  0  0  0  0  0  0  0  0999 V2000
    0.6166    0.0000    0.0000 C   0  0  0  0  0  0  0  0  0  0  0  0
   -0.1905    0.0000    0.0000 O   0  0  0  0  0  0  0  0  0  0  0  0
   -0.7425    0.0000    0.0000 C   0  0  0  0  0  0  0  0  0  0  0  0
   -0.4876    0.0000    0.0000 C   0  0  0  0  0  0  0  0  0  0  0  0
   -1.0396    0.0000    0.0000 C   0  0  0  0  0  0  0  0  0  0  0  0
   -1.8466    0.0000    0.0000 C   0  0  0  0  0  0  0  0  0  0  0  0
   -2.1015    0.0000    0.0000 C   0  0  0  0  0  0  0  0  0  0  0  0
   -1.5495    0.0000    0.0000 C   0  0  0  0  0  0  0  0  0  0  0  0
   -1.8044    0.0000    0.0000 O   0  0  0  0  0  0  0  0  0  0  0  0
   -2.6114    0.0000    0.0000 C   0  0  0  0  0  0  0  0  0  0  0  0
   -2.8663    0.0000    0.0000 C   0  0  0  0  0  0  0  0  0  0  0  0
   -3.6733    0.0000    0.0000 C   0  0  0  0  0  0  0  0  0  0  0  0
   -4.2253    0.0000    0.0000 C   0  0  0  0  0  0  0  0  0  0  0  0
   -3.9704    0.0000    0.0000 C   0  0  0  0  0  0  0  0  0  0  0  0
   -3.1634    0.0000    0.0000 O   0  0  0  0  0  0  0  0  0  0  0  0
   -4.5224    0.0000    0.0000 C   0  0  0  0  0  0  0  0  0  0  0  0
   -5.3294    0.0000    0.0000 O   0  0  0  0  0  0  0  0  0  0  0  0
   -5.0323    0.0000    0.0000 O   0  0  0  0  0  0  0  0  0  0  0  0
   -3.9282    0.0000    0.0000 O   0  0  0  0  0  0  0  0  0  0  0  0
   -2.3143    0.0000    0.0000 O   0  0  0  0  0  0  0  0  0  0  0  0
   -2.9085    0.0000    0.0000 O   0  0  0  0  0  0  0  0  0  0  0  0
   -3.4605    0.0000    0.0000 C   0  0  0  0  0  0  0  0  0  0  0  0
   -0.7847    0.0000    0.0000 C   0  0  0  0  0  0  0  0  0  0  0  0
    0.0000    0.0000    0.0000 C   0  0  0  0  0  0  0  0  0  0  0  0
    0.7847    0.0000    0.0000 C   0  0  0  0  0  0  0  0  0  0  0  0
    1.2696    0.0000    0.0000 O   0  0  0  0  0  0  0  0  0  0  0  0
    0.7847    0.0000    0.0000 C   0  0  0  0  0  0  0  0  0  0  0  0
    0.0000    0.0000    0.0000 C   0  0  0  0  0  0  0  0  0  0  0  0
   -0.7847    0.0000    0.0000 C   0  0  0  0  0  0  0  0  0  0  0  0
   -1.2696    0.0000    0.0000 O   0  0  0  0  0  0  0  0  0  0  0  0
    1.0396    0.0000    0.0000 C   0  0  0  0  0  0  0  0  0  0  0  0
    1.8466    0.0000    0.0000 C   0  0  0  0  0  0  0  0  0  0  0  0
    2.1015    0.0000    0.0000 C   0  0  0  0  0  0  0  0  0  0  0  0
    1.5495    0.0000    0.0000 C   0  0  0  0  0  0  0  0  0  0  0  0
    0.7425    0.0000    0.0000 C   0  0  0  0  0  0  0  0  0  0  0  0
    0.4876    0.0000    0.0000 C   0  0  0  0  0  0  0  0  0  0  0  0
    0.1905    0.0000    0.0000 O   0  0  0  0  0  0  0  0  0  0  0  0
   -0.6166    0.0000    0.0000 C   0  0  0  0  0  0  0  0  0  0  0  0
    1.8044    0.0000    0.0000 O   0  0  0  0  0  0  0  0  0  0  0  0
    2.6114    0.0000    0.0000 C   0  0  0  0  0  0  0  0  0  0  0  0
    2.8664    0.0000    0.0000 C   0  0  0  0  0  0  0  0  0  0  0  0
    3.6733    0.0000    0.0000 C   0  0  0  0  0  0  0  0  0  0  0  0
    4.2254    0.0000    0.0000 C   0  0  0  0  0  0  0  0  0  0  0  0
    3.9704    0.0000    0.0000 C   0  0  0  0  0  0  0  0  0  0  0  0
    3.1634    0.0000    0.0000 O   0  0  0  0  0  0  0  0  0  0  0  0
    4.5225    0.0000    0.0000 C   0  0  0  0  0  0  0  0  0  0  0  0
    5.3294    0.0000    0.0000 O   0  0  0  0  0  0  0  0  0  0  0  0
    5.0323    0.0000    0.0000 O   0  0  0  0  0  0  0  0  0  0  0  0
    3.9283    0.0000    0.0000 O   0  0  0  0  0  0  0  0  0  0  0  0
    2.3143    0.0000    0.0000 O   0  0  0  0  0  0  0  0  0  0  0  0
    2.9085    0.0000    0.0000 O   0  0  0  0  0  0  0  0  0  0  0  0
    3.4605    0.0000    0.0000 C   0  0  0  0  0  0  0  0  0  0  0  0
  1  2  1  0      
  2  3  1  0      
  3  4  2  0      
  4  5  1  0      
  5  6  2  0      
  6  7  1  0      
  7  8  2  0      
  3  8  1  0      
  8  9  1  0      
  9 10  1  0      
 10 11  1  0      
 11 12  1  0      
 12 13  1  0      
 13 14  1  0      
 14 15  1  0      
 10 15  1  0      
 14 16  1  0      
 16 17  1  0      
 13 18  1  0      
 12 19  1  0      
 11 20  1  0      
  7 21  1  0      
 21 22  1  0      
  5 23  1  0      
 23 24  1  0      
 24 25  1  0      
 25 26  1  0      
 26 27  1  0      
 27 28  1  0      
 24 28  1  0      
 28 29  1  0      
 29 30  1  0      
 23 30  1  0      
 27 31  1  0      
 31 32  2  0      
 32 33  1  0      
 33 34  2  0      
 34 35  1  0      
 35 36  2  0      
 31 36  1  0      
 35 37  1  0      
 37 38  1  0      
 34 39  1  0      
 39 40  1  0      
 40 41  1  0      
 41 42  1  0      
 42 43  1  0      
 43 44  1  0      
 44 45  1  0      
 40 45  1  0      
 44 46  1  0      
 46 47  1  0      
 43 48  1  0      
 42 49  1  0      
 41 50  1  0      
 33 51  1  0      
 51 52  1  0      
M  END
>  <Bioactivity>
Eleutheroside E has anti-inflammatory effects by inhibiting NF-¦ÊB activities. Eleutheroside E significantly decreases the inflammatory cell infiltration, pannus formation, cartilage damage, bone eros
ion of CIA mice, the generation of TNF-¦Á and IL-6, the metabolism of drugs metabolized via CYP2C9 and CYP2E1. Eleutheroside E may treat rheumatoid arthritis or increase the toxicity of the drugs.

>  <CAS>
39432-56-9

>  <Col>
8

>  <Formula>
C34H46O18

>  <ID>
T3662

>  <Index>
667

>  <MOLENAME>
Eleutheroside E

>  <MolWt>
742.73

>  <Pathways>
Immunology/Inflammation

>  <Plate>
PLATE 009

>  <QR code>
1151480867

>  <Receptor>
NF-¦ªb

>  <Reference>
1. Kil YS, et al. Arch Pharm Res. 2015 Nov;38(11):1921-5.

>  <Row>
C

>  <SMILES>
COC1=CC(=CC(=C1OC2C(C(C(C(O2)CO)O)O)O)OC)C3C4COC(C4CO3)C5=CC(=C(C(=C5)OC)OC6C(C(C(C(O6)CO)O)O)O)OC

>  <Target>
NF-¦ªb inhibitor

>  <Weight>
10.2mg

$$$$
Lab-1.sdf
  ChemDraw05232018482D

 31 36  0  0  0  0  0  0  0  0999 V2000
    4.5247    0.0000    0.0000 C   0  0  0  0  0  0  0  0  0  0  0  0
    3.9455    0.0000    0.0000 C   0  0  0  0  0  0  0  0  0  0  0  0
    3.1471    0.0000    0.0000 C   0  0  0  0  0  0  0  0  0  0  0  0
    2.5679    0.0000    0.0000 C   0  0  0  0  0  0  0  0  0  0  0  0
    2.7871    0.0000    0.0000 C   0  0  0  0  0  0  0  0  0  0  0  0
    2.0985    0.0000    0.0000 C   0  0  0  0  0  0  0  0  0  0  0  0
    1.4536    0.0000    0.0000 C   0  0  0  0  0  0  0  0  0  0  0  0
    1.7438    0.0000    0.0000 O   0  0  0  0  0  0  0  0  0  0  0  0
    1.2458    0.0000    0.0000 C   0  0  0  0  0  0  0  0  0  0  0  0
    0.4504    0.0000    0.0000 C   0  0  0  0  0  0  0  0  0  0  0  0
   -0.1371    0.0000    0.0000 C   0  0  0  0  0  0  0  0  0  0  0  0
   -0.9606    0.0000    0.0000 C   0  0  0  0  0  0  0  0  0  0  0  0
   -1.4752    0.0000    0.0000 C   0  0  0  0  0  0  0  0  0  0  0  0
   -2.2910    0.0000    0.0000 C   0  0  0  0  0  0  0  0  0  0  0  0
   -2.5921    0.0000    0.0000 C   0  0  0  0  0  0  0  0  0  0  0  0
   -3.4078    0.0000    0.0000 C   0  0  0  0  0  0  0  0  0  0  0  0
   -3.7090    0.0000    0.0000 C   0  0  0  0  0  0  0  0  0  0  0  0
   -3.1944    0.0000    0.0000 C   0  0  0  0  0  0  0  0  0  0  0  0
   -2.3786    0.0000    0.0000 C   0  0  0  0  0  0  0  0  0  0  0  0
   -2.0775    0.0000    0.0000 C   0  0  0  0  0  0  0  0  0  0  0  0
   -1.2617    0.0000    0.0000 C   0  0  0  0  0  0  0  0  0  0  0  0
   -0.6243    0.0000    0.0000 C   0  0  0  0  0  0  0  0  0  0  0  0
   -0.6734    0.0000    0.0000 O   0  0  0  0  0  0  0  0  0  0  0  0
    0.0708    0.0000    0.0000 C   0  0  0  0  0  0  0  0  0  0  0  0
    0.8661    0.0000    0.0000 C   0  0  0  0  0  0  0  0  0  0  0  0
    1.0740    0.0000    0.0000 C   0  0  0  0  0  0  0  0  0  0  0  0
   -1.5629    0.0000    0.0000 C   0  0  0  0  0  0  0  0  0  0  0  0
   -4.5247    0.0000    0.0000 O   0  0  0  0  0  0  0  0  0  0  0  0
    2.0611    0.0000    0.0000 C   0  0  0  0  0  0  0  0  0  0  0  0
    3.5855    0.0000    0.0000 N   0  0  0  0  0  0  0  0  0  0  0  0
    4.1647    0.0000    0.0000 C   0  0  0  0  0  0  0  0  0  0  0  0
  1  2  1  0      
  2  3  1  0      
  3  4  1  0      
  4  5  1  0      
  5  6  1  0      
  6  7  1  0      
  7  8  1  0      
  4  8  1  0      
  7  9  1  0      
  9 10  1  0      
 10 11  1  0      
 11 12  1  0      
 12 13  1  0      
 13 14  1  0      
 14 15  2  0      
 15 16  1  0      
 16 17  1  0      
 17 18  1  0      
 18 19  1  0      
 19 20  1  0      
 15 20  1  0      
 20 21  1  0      
 12 21  1  0      
 21 22  1  0      
 22 23  2  0      
 22 24  1  0      
 11 24  1  0      
 24 25  2  0      
  7 25  1  0      
 25 26  1  0      
 20 27  1  0      
 17 28  1  0      
  6 29  1  0      
  5 30  1  0      
 30 31  1  0      
  2 31  1  0      
M  END
>  <Bioactivity>
Jervine's biological activity is mediated via its interaction with the 7 pass trans membrane protein smoothened. Jervine binds with and inhibits smoothened, which is an integral part of the hedgehog s
ignaling pathways. With smoothened inhibited, the GLI1 transcription cannot be activated and hedgehog target genes cannot be transcribed.

>  <CAS>
469-59-0

>  <Col>
9

>  <Formula>
C27H39NO3

>  <ID>
T3363

>  <Index>
668

>  <MOLENAME>
Jervine

>  <MolWt>
425.61

>  <Pathways>
Stem Cell;

>  <Plate>
PLATE 009

>  <QR code>
1151480866

>  <Receptor>
Smoothened ; Hedgehog

>  <Reference>
1. Chen JK, et al. Genes Dev. 2002 Nov 1; 16(21): 2743?2748.;

>  <Row>
C

>  <SMILES>
CC1CC2C(C(C3(O2)CCC4C5CC=C6CC(CCC6(C5C(=O)C4=C3C)C)O)C)NC1

>  <Target>
Smoothened receptor; Hedgehog

>  <Weight>
10.2mg

$$$$
Lab-1.sdf
  ChemDraw05232018482D

 22 25  0  0  0  0  0  0  0  0999 V2000
   -1.4290    0.0000    0.0000 C   0  0  0  0  0  0  0  0  0  0  0  0
   -1.4290    0.0000    0.0000 N   0  0  0  0  0  0  0  0  0  0  0  0
   -2.1434    0.0000    0.0000 C   0  0  0  0  0  0  0  0  0  0  0  0
   -2.1434    0.0000    0.0000 C   0  0  0  0  0  0  0  0  0  0  0  0
   -1.4290    0.0000    0.0000 C   0  0  0  0  0  0  0  0  0  0  0  0
   -1.4290    0.0000    0.0000 C   0  0  0  0  0  0  0  0  0  0  0  0
   -0.7145    0.0000    0.0000 C   0  0  0  0  0  0  0  0  0  0  0  0
   -0.0000    0.0000    0.0000 C   0  0  0  0  0  0  0  0  0  0  0  0
   -0.0000    0.0000    0.0000 C   0  0  0  0  0  0  0  0  0  0  0  0
   -0.7145    0.0000    0.0000 C   0  0  0  0  0  0  0  0  0  0  0  0
   -0.7145    0.0000    0.0000 C   0  0  0  0  0  0  0  0  0  0  0  0
   -0.0000    0.0000    0.0000 C   0  0  0  0  0  0  0  0  0  0  0  0
    0.7144    0.0000    0.0000 C   0  0  0  0  0  0  0  0  0  0  0  0
    1.4289    0.0000    0.0000 C   0  0  0  0  0  0  0  0  0  0  0  0
    2.1434    0.0000    0.0000 C   0  0  0  0  0  0  0  0  0  0  0  0
    2.1434    0.0000    0.0000 C   0  0  0  0  0  0  0  0  0  0  0  0
    1.4289    0.0000    0.0000 C   0  0  0  0  0  0  0  0  0  0  0  0
    0.7144    0.0000    0.0000 C   0  0  0  0  0  0  0  0  0  0  0  0
    0.7144    0.0000    0.0000 O   0  0  0  0  0  0  0  0  0  0  0  0
    1.4289    0.0000    0.0000 C   0  0  0  0  0  0  0  0  0  0  0  0
   -0.7145    0.0000    0.0000 O   0  0  0  0  0  0  0  0  0  0  0  0
   -0.0000    0.0000    0.0000 C   0  0  0  0  0  0  0  0  0  0  0  0
  1  2  1  0      
  2  3  1  0      
  3  4  1  0      
  4  5  1  0      
  5  6  2  0      
  6  7  1  0      
  7  8  2  0      
  8  9  1  0      
  9 10  2  0      
  5 10  1  0      
 10 11  1  0      
  2 11  1  0      
 11 12  1  0      
 12 13  1  0      
 13 14  2  0      
 14 15  1  0      
 15 16  2  0      
 16 17  1  0      
 17 18  2  0      
 13 18  1  0      
  9 18  1  0      
  8 19  1  0      
 19 20  1  0      
  7 21  1  0      
 21 22  1  0      
M  END
>  <Bioactivity>
Nuciferine is an alkaloid found within the plants Nymphaea caerulea and Nelumbo nucifera. It has a profile of action associated with dopamine receptor blockade.[1] It induces sedation, hypothermia, pt
osis, and (in higher doses) catalepsy; it inhibits spontaneous motor activity, conditioned avoidance response, amphetamine toxicity and stereotypy. Nuciferine may also potentiate morphine analgesia.

>  <CAS>
475-83-2

>  <Col>
10

>  <Formula>
C19H21NO2

>  <ID>
T3369

>  <Index>
669

>  <MOLENAME>
Nuciferine

>  <MolWt>
295.38

>  <Pathways>
Neuroscience;

>  <Plate>
PLATE 009

>  <QR code>
1151480865

>  <Receptor>
Dopamine receptor; 

>  <Reference>
1. Farrell MS, et al. PLoS One. 2016 Mar 10;11(3):e0150602.;

>  <Row>
C

>  <SMILES>
CN1CCC2=CC(=C(C3=C2C1CC4=CC=CC=C43)OC)OC

>  <Target>
dopamine receptor inhibitor; 

>  <Weight>
10.1mg

$$$$
Lab-1.sdf
  ChemDraw05232018482D

 24 26  0  0  0  0  0  0  0  0999 V2000
    3.6347    0.0000    0.0000 C   0  0  0  0  0  0  0  0  0  0  0  0
    2.9334    0.0000    0.0000 C   0  0  0  0  0  0  0  0  0  0  0  0
    2.9592    0.0000    0.0000 C   0  0  0  0  0  0  0  0  0  0  0  0
    3.6862    0.0000    0.0000 C   0  0  0  0  0  0  0  0  0  0  0  0
    2.2580    0.0000    0.0000 C   0  0  0  0  0  0  0  0  0  0  0  0
    2.2837    0.0000    0.0000 O   0  0  0  0  0  0  0  0  0  0  0  0
    1.5310    0.0000    0.0000 O   0  0  0  0  0  0  0  0  0  0  0  0
    0.8297    0.0000    0.0000 C   0  0  0  0  0  0  0  0  0  0  0  0
    1.2643    0.0000    0.0000 C   0  0  0  0  0  0  0  0  0  0  0  0
    0.3951    0.0000    0.0000 C   0  0  0  0  0  0  0  0  0  0  0  0
    0.1285    0.0000    0.0000 C   0  0  0  0  0  0  0  0  0  0  0  0
   -0.6352    0.0000    0.0000 C   0  0  0  0  0  0  0  0  0  0  0  0
   -1.1678    0.0000    0.0000 C   0  0  0  0  0  0  0  0  0  0  0  0
   -0.7332    0.0000    0.0000 C   0  0  0  0  0  0  0  0  0  0  0  0
    0.0679    0.0000    0.0000 O   0  0  0  0  0  0  0  0  0  0  0  0
   -1.1232    0.0000    0.0000 C   0  0  0  0  0  0  0  0  0  0  0  0
   -1.9478    0.0000    0.0000 C   0  0  0  0  0  0  0  0  0  0  0  0
   -2.3824    0.0000    0.0000 C   0  0  0  0  0  0  0  0  0  0  0  0
   -1.9924    0.0000    0.0000 C   0  0  0  0  0  0  0  0  0  0  0  0
   -2.4270    0.0000    0.0000 O   0  0  0  0  0  0  0  0  0  0  0  0
   -3.2516    0.0000    0.0000 C   0  0  0  0  0  0  0  0  0  0  0  0
   -3.6862    0.0000    0.0000 O   0  0  0  0  0  0  0  0  0  0  0  0
   -3.6416    0.0000    0.0000 C   0  0  0  0  0  0  0  0  0  0  0  0
   -3.2070    0.0000    0.0000 C   0  0  0  0  0  0  0  0  0  0  0  0
  2  1  1  4      
  2  3  2  0      
  3  4  1  0      
  3  5  1  0      
  5  6  2  0      
  5  7  1  0      
  7  8  1  0      
  8  9  1  0      
  8 10  1  0      
  8 11  1  0      
 11 12  1  0      
 12 13  1  0      
 13 14  2  0      
 14 15  1  0      
 11 15  1  0      
 14 16  1  0      
 16 17  2  0      
 17 18  1  0      
 18 19  2  0      
 13 19  1  0      
 19 20  1  0      
 20 21  1  0      
 21 22  2  0      
 21 23  1  0      
 23 24  2  0      
 18 24  1  0      
M  END
>  <Bioactivity>
Columbianadin, one of the main bioactive constituents of the roots of Angelica pubescens Maxim. f. biserrata Shan et Yuan, has been found to possess obvious pharmacological effects in previous studies
.

>  <CAS>
5058-13-9

>  <Col>
11

>  <Formula>
C19H20O5

>  <ID>
T3373

>  <Index>
670

>  <MOLENAME>
Columbianadin

>  <MolWt>
328.36

>  <Pathways>
Others

>  <Plate>
PLATE 009

>  <QR code>
1151480864

>  <Receptor>
Others

>  <Reference>
1. Zhang YB, et al. Biomedical Chromatography, 2016, 30(2):256-262;

>  <Row>
C

>  <SMILES>
CC=C(C)C(=O)OC(C)(C)C1CC2=C(O1)C=CC3=C2OC(=O)C=C3

>  <Target>
Others

>  <Weight>
10.2mg

$$$$
Lab-1.sdf
  ChemDraw05232018482D

 32 35  0  0  0  0  0  0  0  0999 V2000
   -2.8578    0.0000    0.0000 C   0  0  0  0  0  0  0  0  0  0  0  0
   -3.5723    0.0000    0.0000 C   0  0  0  0  0  0  0  0  0  0  0  0
   -4.2867    0.0000    0.0000 C   0  0  0  0  0  0  0  0  0  0  0  0
   -4.2867    0.0000    0.0000 C   0  0  0  0  0  0  0  0  0  0  0  0
   -3.5723    0.0000    0.0000 C   0  0  0  0  0  0  0  0  0  0  0  0
   -2.8578    0.0000    0.0000 C   0  0  0  0  0  0  0  0  0  0  0  0
   -2.1433    0.0000    0.0000 C   0  0  0  0  0  0  0  0  0  0  0  0
   -2.1433    0.0000    0.0000 C   0  0  0  0  0  0  0  0  0  0  0  0
   -1.4290    0.0000    0.0000 C   0  0  0  0  0  0  0  0  0  0  0  0
   -1.4290    0.0000    0.0000 O   0  0  0  0  0  0  0  0  0  0  0  0
   -0.7145    0.0000    0.0000 C   0  0  0  0  0  0  0  0  0  0  0  0
   -0.0000    0.0000    0.0000 C   0  0  0  0  0  0  0  0  0  0  0  0
    0.7145    0.0000    0.0000 C   0  0  0  0  0  0  0  0  0  0  0  0
    0.7145    0.0000    0.0000 C   0  0  0  0  0  0  0  0  0  0  0  0
   -0.0000    0.0000    0.0000 C   0  0  0  0  0  0  0  0  0  0  0  0
   -0.7145    0.0000    0.0000 C   0  0  0  0  0  0  0  0  0  0  0  0
   -1.4290    0.0000    0.0000 O   0  0  0  0  0  0  0  0  0  0  0  0
    1.4289    0.0000    0.0000 O   0  0  0  0  0  0  0  0  0  0  0  0
    2.1433    0.0000    0.0000 C   0  0  0  0  0  0  0  0  0  0  0  0
    2.1433    0.0000    0.0000 C   0  0  0  0  0  0  0  0  0  0  0  0
    2.8578    0.0000    0.0000 C   0  0  0  0  0  0  0  0  0  0  0  0
    3.5722    0.0000    0.0000 C   0  0  0  0  0  0  0  0  0  0  0  0
    3.5722    0.0000    0.0000 C   0  0  0  0  0  0  0  0  0  0  0  0
    2.8578    0.0000    0.0000 O   0  0  0  0  0  0  0  0  0  0  0  0
    4.2867    0.0000    0.0000 C   0  0  0  0  0  0  0  0  0  0  0  0
    5.0011    0.0000    0.0000 O   0  0  0  0  0  0  0  0  0  0  0  0
    4.2867    0.0000    0.0000 O   0  0  0  0  0  0  0  0  0  0  0  0
    2.8578    0.0000    0.0000 O   0  0  0  0  0  0  0  0  0  0  0  0
    1.4289    0.0000    0.0000 O   0  0  0  0  0  0  0  0  0  0  0  0
   -0.0000    0.0000    0.0000 O   0  0  0  0  0  0  0  0  0  0  0  0
   -5.0011    0.0000    0.0000 O   0  0  0  0  0  0  0  0  0  0  0  0
   -5.0011    0.0000    0.0000 O   0  0  0  0  0  0  0  0  0  0  0  0
  1  2  2  0      
  2  3  1  0      
  3  4  2  0      
  4  5  1  0      
  5  6  2  0      
  1  6  1  0      
  6  7  1  0      
  7  8  2  0      
  8  9  1  0      
  9 10  2  0      
  9 11  1  0      
 11 12  2  0      
 12 13  1  0      
 13 14  2  0      
 14 15  1  0      
 15 16  2  0      
 11 16  1  0      
 16 17  1  0      
  7 17  1  0      
 14 18  1  0      
 18 19  1  0      
 19 20  1  0      
 20 21  1  0      
 21 22  1  0      
 22 23  1  0      
 23 24  1  0      
 19 24  1  0      
 23 25  1  0      
 25 26  1  0      
 22 27  1  0      
 21 28  1  0      
 20 29  1  0      
 12 30  1  0      
  4 31  1  0      
  3 32  1  0      
M  END
>  <Bioactivity>
Cynaroside is a flavone, a flavonoid-like chemical compound.

>  <CAS>
5373-11-5

>  <Col>
2

>  <Formula>
C21H20O11

>  <ID>
T3376

>  <Index>
671

>  <MOLENAME>
Cynaroside

>  <MolWt>
448.38

>  <Pathways>
Others

>  <Plate>
PLATE 009

>  <QR code>
1151480852

>  <Receptor>
Others

>  <Reference>
1. Hu W, et al. Effects of ultrahigh pressure extraction on yield and antioxidant activity of chlorogenic acid and cynaroside extracted from flower buds of Lonicera japonica.  Chin J Nat Med. 2015 Jun
;13(6):445-53.

>  <Row>
D

>  <SMILES>
C1=CC(=C(C=C1C2=CC(=O)C3=C(C=C(C=C3O2)OC4C(C(C(C(O4)CO)O)O)O)O)O)O

>  <Target>
Others

>  <Weight>
10.3mg

$$$$
Lab-1.sdf
  ChemDraw05232018482D

 30 34  0  0  0  0  0  0  0  0999 V2000
   -4.7595    0.0000    0.0000 C   0  0  0  0  0  0  0  0  0  0  0  0
   -4.0654    0.0000    0.0000 C   0  0  0  0  0  0  0  0  0  0  0  0
   -3.3321    0.0000    0.0000 C   0  0  0  0  0  0  0  0  0  0  0  0
   -2.6381    0.0000    0.0000 C   0  0  0  0  0  0  0  0  0  0  0  0
   -2.6773    0.0000    0.0000 C   0  0  0  0  0  0  0  0  0  0  0  0
   -3.4105    0.0000    0.0000 N   0  0  0  0  0  0  0  0  0  0  0  0
   -4.1046    0.0000    0.0000 C   0  0  0  0  0  0  0  0  0  0  0  0
   -1.9832    0.0000    0.0000 C   0  0  0  0  0  0  0  0  0  0  0  0
   -2.0224    0.0000    0.0000 C   0  0  0  0  0  0  0  0  0  0  0  0
   -1.2501    0.0000    0.0000 C   0  0  0  0  0  0  0  0  0  0  0  0
   -0.5560    0.0000    0.0000 C   0  0  0  0  0  0  0  0  0  0  0  0
    0.1773    0.0000    0.0000 C   0  0  0  0  0  0  0  0  0  0  0  0
    0.2165    0.0000    0.0000 C   0  0  0  0  0  0  0  0  0  0  0  0
   -0.4776    0.0000    0.0000 C   0  0  0  0  0  0  0  0  0  0  0  0
   -1.2108    0.0000    0.0000 C   0  0  0  0  0  0  0  0  0  0  0  0
    1.0123    0.0000    0.0000 C   0  0  0  0  0  0  0  0  0  0  0  0
    1.3833    0.0000    0.0000 C   0  0  0  0  0  0  0  0  0  0  0  0
    2.2069    0.0000    0.0000 C   0  0  0  0  0  0  0  0  0  0  0  0
    2.6595    0.0000    0.0000 C   0  0  0  0  0  0  0  0  0  0  0  0
    3.4832    0.0000    0.0000 C   0  0  0  0  0  0  0  0  0  0  0  0
    3.9358    0.0000    0.0000 C   0  0  0  0  0  0  0  0  0  0  0  0
    3.5648    0.0000    0.0000 C   0  0  0  0  0  0  0  0  0  0  0  0
    2.7412    0.0000    0.0000 C   0  0  0  0  0  0  0  0  0  0  0  0
    2.2885    0.0000    0.0000 C   0  0  0  0  0  0  0  0  0  0  0  0
    1.4650    0.0000    0.0000 C   0  0  0  0  0  0  0  0  0  0  0  0
    0.9489    0.0000    0.0000 C   0  0  0  0  0  0  0  0  0  0  0  0
    1.9175    0.0000    0.0000 C   0  0  0  0  0  0  0  0  0  0  0  0
    4.7595    0.0000    0.0000 O   0  0  0  0  0  0  0  0  0  0  0  0
   -0.5952    0.0000    0.0000 C   0  0  0  0  0  0  0  0  0  0  0  0
   -1.9048    0.0000    0.0000 O   0  0  0  0  0  0  0  0  0  0  0  0
  1  2  1  0      
  2  3  1  0      
  3  4  1  0      
  4  5  1  0      
  5  6  1  0      
  6  7  1  0      
  2  7  1  0      
  5  8  1  0      
  8  9  1  0      
  8 10  1  0      
 10 11  2  0      
 11 12  1  0      
 12 13  2  0      
 13 14  1  0      
 14 15  2  0      
 10 15  1  0      
 13 16  1  0      
 16 17  1  0      
 17 18  1  0      
 18 19  2  0      
 19 20  1  0      
 20 21  1  0      
 21 22  1  0      
 22 23  1  0      
 23 24  1  0      
 19 24  1  0      
 24 25  1  0      
 16 25  1  0      
 25 26  1  0      
 12 26  1  0      
 24 27  1  0      
 21 28  1  0      
 11 29  1  0      
  4 30  1  0      
M  END
>  <Bioactivity>
Veratramine(NSC17821; NSC23880) is useful as a signal transduction inhibitor for treating tumors.

>  <CAS>
60-70-8

>  <Col>
3

>  <Formula>
C27H39NO2

>  <ID>
T3364

>  <Index>
672

>  <MOLENAME>
Veratramine

>  <MolWt>
409.61

>  <Pathways>
Others

>  <Plate>
PLATE 009

>  <QR code>
1151480853

>  <Receptor>
Others

>  <Reference>
1. Wang L, et al. Pharmazie. 2008 Aug;63(8):606-10.;2. Li HJ, et al. Chem Pharm Bull (Tokyo). 2006 May;54(5):722-4.;

>  <Row>
D

>  <SMILES>
CC1CC(C(NC1)C(C)C2=C(C3=C(C=C2)C4CC=C5CC(CCC5(C4C3)C)O)C)O

>  <Target>
Others

>  <Weight>
10.2mg

$$$$
Lab-1.sdf
  ChemDraw05232018482D

 44 47  0  0  0  0  0  0  0  0999 V2000
   -2.5007    0.0000    0.0000 C   0  0  0  0  0  0  0  0  0  0  0  0
   -2.5007    0.0000    0.0000 C   0  0  0  0  0  0  0  0  0  0  0  0
   -3.2151    0.0000    0.0000 C   0  0  0  0  0  0  0  0  0  0  0  0
   -3.2151    0.0000    0.0000 C   0  0  0  0  0  0  0  0  0  0  0  0
   -2.5007    0.0000    0.0000 C   0  0  0  0  0  0  0  0  0  0  0  0
   -1.7862    0.0000    0.0000 C   0  0  0  0  0  0  0  0  0  0  0  0
   -1.7862    0.0000    0.0000 O   0  0  0  0  0  0  0  0  0  0  0  0
   -1.0717    0.0000    0.0000 O   0  0  0  0  0  0  0  0  0  0  0  0
   -0.3572    0.0000    0.0000 C   0  0  0  0  0  0  0  0  0  0  0  0
   -0.3572    0.0000    0.0000 C   0  0  0  0  0  0  0  0  0  0  0  0
    0.3572    0.0000    0.0000 C   0  0  0  0  0  0  0  0  0  0  0  0
    1.0717    0.0000    0.0000 O   0  0  0  0  0  0  0  0  0  0  0  0
    1.0717    0.0000    0.0000 C   0  0  0  0  0  0  0  0  0  0  0  0
    0.3572    0.0000    0.0000 C   0  0  0  0  0  0  0  0  0  0  0  0
    0.3572    0.0000    0.0000 O   0  0  0  0  0  0  0  0  0  0  0  0
   -0.3572    0.0000    0.0000 C   0  0  0  0  0  0  0  0  0  0  0  0
   -0.3572    0.0000    0.0000 O   0  0  0  0  0  0  0  0  0  0  0  0
   -1.0717    0.0000    0.0000 C   0  0  0  0  0  0  0  0  0  0  0  0
   -1.7862    0.0000    0.0000 C   0  0  0  0  0  0  0  0  0  0  0  0
   -1.7862    0.0000    0.0000 C   0  0  0  0  0  0  0  0  0  0  0  0
   -1.0717    0.0000    0.0000 C   0  0  0  0  0  0  0  0  0  0  0  0
   -1.0717    0.0000    0.0000 C   0  0  0  0  0  0  0  0  0  0  0  0
   -1.7862    0.0000    0.0000 C   0  0  0  0  0  0  0  0  0  0  0  0
   -2.5007    0.0000    0.0000 C   0  0  0  0  0  0  0  0  0  0  0  0
   -2.5007    0.0000    0.0000 C   0  0  0  0  0  0  0  0  0  0  0  0
   -1.7862    0.0000    0.0000 O   0  0  0  0  0  0  0  0  0  0  0  0
   -0.3572    0.0000    0.0000 O   0  0  0  0  0  0  0  0  0  0  0  0
    1.7862    0.0000    0.0000 C   0  0  0  0  0  0  0  0  0  0  0  0
    1.7862    0.0000    0.0000 O   0  0  0  0  0  0  0  0  0  0  0  0
    0.3572    0.0000    0.0000 O   0  0  0  0  0  0  0  0  0  0  0  0
    1.0717    0.0000    0.0000 C   0  0  0  0  0  0  0  0  0  0  0  0
    1.0717    0.0000    0.0000 C   0  0  0  0  0  0  0  0  0  0  0  0
    1.7862    0.0000    0.0000 C   0  0  0  0  0  0  0  0  0  0  0  0
    1.7862    0.0000    0.0000 C   0  0  0  0  0  0  0  0  0  0  0  0
    2.5006    0.0000    0.0000 C   0  0  0  0  0  0  0  0  0  0  0  0
    3.2151    0.0000    0.0000 C   0  0  0  0  0  0  0  0  0  0  0  0
    3.2151    0.0000    0.0000 C   0  0  0  0  0  0  0  0  0  0  0  0
    2.5006    0.0000    0.0000 C   0  0  0  0  0  0  0  0  0  0  0  0
    3.9296    0.0000    0.0000 O   0  0  0  0  0  0  0  0  0  0  0  0
    2.5006    0.0000    0.0000 O   0  0  0  0  0  0  0  0  0  0  0  0
   -1.0717    0.0000    0.0000 O   0  0  0  0  0  0  0  0  0  0  0  0
   -2.5007    0.0000    0.0000 O   0  0  0  0  0  0  0  0  0  0  0  0
   -3.9296    0.0000    0.0000 O   0  0  0  0  0  0  0  0  0  0  0  0
   -3.9296    0.0000    0.0000 O   0  0  0  0  0  0  0  0  0  0  0  0
  1  2  1  0      
  2  3  1  0      
  3  4  1  0      
  4  5  1  0      
  5  6  1  0      
  6  7  1  0      
  2  7  1  0      
  6  8  1  0      
  8  9  1  0      
  9 10  1  0      
 10 11  1  0      
 11 12  1  0      
 12 13  1  0      
 13 14  1  0      
  9 14  1  0      
 14 15  1  0      
 15 16  1  0      
 16 17  2  0      
 18 16  1  4      
 18 19  2  0      
 19 20  1  0      
 20 21  2  0      
 21 22  1  0      
 22 23  2  0      
 23 24  1  0      
 24 25  2  0      
 20 25  1  0      
 23 26  1  0      
 22 27  1  0      
 13 28  1  0      
 28 29  1  0      
 11 30  1  0      
 30 31  1  0      
 31 32  1  0      
 32 33  1  0      
 33 34  2  0      
 34 35  1  0      
 35 36  2  0      
 36 37  1  0      
 37 38  2  0      
 33 38  1  0      
 36 39  1  0      
 35 40  1  0      
 10 41  1  0      
  5 42  1  0      
  4 43  1  0      
  3 44  1  0      
M  END
>  <Bioactivity>
Verbascoside has an antimicrobial activity, notably against Staphylococcus aureus. It can also have anti-inflammatory properties.Although some in vitro genotoxicity of verbascoside has been reported 
on human lymphocytes with an involvement of PARP-1 and p53 proteins, subsequent in vivo tests reported no genotoxicity for high dosage oral administration. It is a protein kinase C inhibitor.

>  <CAS>
61276-17-3

>  <Col>
4

>  <Formula>
C29H36O15

>  <ID>
T3375

>  <Index>
673

>  <MOLENAME>
Verbascoside

>  <MolWt>
624.59

>  <Pathways>
DNA Damage/DNA Repair;Apoptosis;Cell Cycle/Checkpoint;

>  <Plate>
PLATE 009

>  <QR code>
1151480854

>  <Receptor>
PARP1; p53; PKC; 

>  <Reference>
1. Herbert JM, et al. Natural Products, 1991, 54 (6): 1595?1600;

>  <Row>
D

>  <SMILES>
CC1C(C(C(C(O1)OC2C(C(OC(C2OC(=O)C=CC3=CC(=C(C=C3)O)O)CO)OCCC4=CC(=C(C=C4)O)O)O)O)O)O

>  <Target>
PARP1; p53; PKC; 

>  <Weight>
10.1mg

$$$$
Lab-1.sdf
  ChemDraw05232018482D

 35 39  0  0  0  0  0  0  0  0999 V2000
   -3.8939    0.0000    0.0000 C   0  0  0  0  0  0  0  0  0  0  0  0
   -3.1186    0.0000    0.0000 C   0  0  0  0  0  0  0  0  0  0  0  0
   -3.5311    0.0000    0.0000 C   0  0  0  0  0  0  0  0  0  0  0  0
   -3.1186    0.0000    0.0000 C   0  0  0  0  0  0  0  0  0  0  0  0
   -2.2936    0.0000    0.0000 C   0  0  0  0  0  0  0  0  0  0  0  0
   -1.8811    0.0000    0.0000 C   0  0  0  0  0  0  0  0  0  0  0  0
   -2.2936    0.0000    0.0000 C   0  0  0  0  0  0  0  0  0  0  0  0
   -1.0561    0.0000    0.0000 C   0  0  0  0  0  0  0  0  0  0  0  0
   -0.6436    0.0000    0.0000 C   0  0  0  0  0  0  0  0  0  0  0  0
    0.1814    0.0000    0.0000 C   0  0  0  0  0  0  0  0  0  0  0  0
    0.5939    0.0000    0.0000 C   0  0  0  0  0  0  0  0  0  0  0  0
    1.4189    0.0000    0.0000 C   0  0  0  0  0  0  0  0  0  0  0  0
    1.8314    0.0000    0.0000 C   0  0  0  0  0  0  0  0  0  0  0  0
    2.6564    0.0000    0.0000 C   0  0  0  0  0  0  0  0  0  0  0  0
    3.0689    0.0000    0.0000 C   0  0  0  0  0  0  0  0  0  0  0  0
    2.6564    0.0000    0.0000 C   0  0  0  0  0  0  0  0  0  0  0  0
    1.8314    0.0000    0.0000 C   0  0  0  0  0  0  0  0  0  0  0  0
    1.4189    0.0000    0.0000 C   0  0  0  0  0  0  0  0  0  0  0  0
    0.5939    0.0000    0.0000 C   0  0  0  0  0  0  0  0  0  0  0  0
    0.1814    0.0000    0.0000 C   0  0  0  0  0  0  0  0  0  0  0  0
   -0.6436    0.0000    0.0000 C   0  0  0  0  0  0  0  0  0  0  0  0
   -1.0561    0.0000    0.0000 C   0  0  0  0  0  0  0  0  0  0  0  0
   -1.8811    0.0000    0.0000 C   0  0  0  0  0  0  0  0  0  0  0  0
   -2.2936    0.0000    0.0000 O   0  0  0  0  0  0  0  0  0  0  0  0
   -0.2311    0.0000    0.0000 C   0  0  0  0  0  0  0  0  0  0  0  0
    0.2676    0.0000    0.0000 C   0  0  0  0  0  0  0  0  0  0  0  0
    3.3560    0.0000    0.0000 C   0  0  0  0  0  0  0  0  0  0  0  0
    2.6852    0.0000    0.0000 C   0  0  0  0  0  0  0  0  0  0  0  0
    3.4136    0.0000    0.0000 O   0  0  0  0  0  0  0  0  0  0  0  0
    3.8939    0.0000    0.0000 O   0  0  0  0  0  0  0  0  0  0  0  0
    1.0064    0.0000    0.0000 C   0  0  0  0  0  0  0  0  0  0  0  0
   -2.7061    0.0000    0.0000 C   0  0  0  0  0  0  0  0  0  0  0  0
   -2.7924    0.0000    0.0000 O   0  0  0  0  0  0  0  0  0  0  0  0
   -3.5311    0.0000    0.0000 O   0  0  0  0  0  0  0  0  0  0  0  0
   -2.9754    0.0000    0.0000 C   0  0  0  0  0  0  0  0  0  0  0  0
  1  2  1  0      
  2  3  1  0      
  3  4  1  0      
  4  5  1  0      
  5  6  1  0      
  6  7  1  0      
  2  7  1  0      
  6  8  1  0      
  8  9  2  0      
  9 10  1  0      
 10 11  1  0      
 11 12  1  0      
 12 13  1  0      
 13 14  1  0      
 14 15  1  0      
 15 16  1  0      
 16 17  1  0      
 12 17  1  0      
 17 18  1  0      
 18 19  1  0      
 19 20  1  0      
 11 20  1  0      
 20 21  1  0      
  8 21  1  0      
 21 22  1  0      
 22 23  1  0      
  5 23  1  0      
 23 24  1  0      
 21 25  1  0      
 20 26  1  0      
 16 27  1  0      
 16 28  1  0      
 28 29  2  0      
 15 30  1  0      
 12 31  1  0      
  5 32  1  0      
 32 33  2  0      
 32 34  1  0      
  2 35  1  0      
M  END
>  <Bioactivity>
Quillaic acid(Quillaja sapogenin) is the major aglycone of the widely studied saponins of the Chilean indigenous tree Quillaja saponaria Mol; can elicit dose-dependent antinociceptive effects in two m
urine thermal models.

>  <CAS>
631-01-6

>  <Col>
5

>  <Formula>
C30H46O5

>  <ID>
T3371

>  <Index>
674

>  <MOLENAME>
Quillaic Acid

>  <MolWt>
486.69

>  <Pathways>
Others

>  <Plate>
PLATE 009

>  <QR code>
1151480855

>  <Receptor>
Others

>  <Reference>
1. Arrau S, et al. J Ethnopharmacol. 2011 Jan 7;133(1):164-7.;

>  <Row>
D

>  <SMILES>
CC1(CCC2(C(C1)C3=CCC4C5(CCC(C(C5CCC4(C3(CC2O)C)C)(C)C=O)O)C)C(=O)O)C

>  <Target>
Others

>  <Weight>
10.3mg

$$$$
Lab-1.sdf
  ChemDraw05232018482D

 66 73  0  0  0  0  0  0  0  0999 V2000
   -6.3539    0.0000    0.0000 C   0  0  0  0  0  0  0  0  0  0  0  0
   -5.5972    0.0000    0.0000 C   0  0  0  0  0  0  0  0  0  0  0  0
   -5.5035    0.0000    0.0000 C   0  0  0  0  0  0  0  0  0  0  0  0
   -4.7468    0.0000    0.0000 C   0  0  0  0  0  0  0  0  0  0  0  0
   -4.0839    0.0000    0.0000 C   0  0  0  0  0  0  0  0  0  0  0  0
   -4.1776    0.0000    0.0000 C   0  0  0  0  0  0  0  0  0  0  0  0
   -4.9343    0.0000    0.0000 O   0  0  0  0  0  0  0  0  0  0  0  0
   -3.5146    0.0000    0.0000 O   0  0  0  0  0  0  0  0  0  0  0  0
   -2.7579    0.0000    0.0000 C   0  0  0  0  0  0  0  0  0  0  0  0
   -2.6642    0.0000    0.0000 C   0  0  0  0  0  0  0  0  0  0  0  0
   -1.9075    0.0000    0.0000 C   0  0  0  0  0  0  0  0  0  0  0  0
   -1.2445    0.0000    0.0000 C   0  0  0  0  0  0  0  0  0  0  0  0
   -1.3382    0.0000    0.0000 O   0  0  0  0  0  0  0  0  0  0  0  0
   -2.0949    0.0000    0.0000 C   0  0  0  0  0  0  0  0  0  0  0  0
   -2.1887    0.0000    0.0000 O   0  0  0  0  0  0  0  0  0  0  0  0
   -1.5257    0.0000    0.0000 C   0  0  0  0  0  0  0  0  0  0  0  0
   -0.9226    0.0000    0.0000 C   0  0  0  0  0  0  0  0  0  0  0  0
   -0.0908    0.0000    0.0000 C   0  0  0  0  0  0  0  0  0  0  0  0
    0.0976    0.0000    0.0000 C   0  0  0  0  0  0  0  0  0  0  0  0
    0.9162    0.0000    0.0000 C   0  0  0  0  0  0  0  0  0  0  0  0
    1.4592    0.0000    0.0000 C   0  0  0  0  0  0  0  0  0  0  0  0
    2.2686    0.0000    0.0000 C   0  0  0  0  0  0  0  0  0  0  0  0
    2.5350    0.0000    0.0000 C   0  0  0  0  0  0  0  0  0  0  0  0
    1.9920    0.0000    0.0000 C   0  0  0  0  0  0  0  0  0  0  0  0
    1.1826    0.0000    0.0000 C   0  0  0  0  0  0  0  0  0  0  0  0
    0.6440    0.0000    0.0000 C   0  0  0  0  0  0  0  0  0  0  0  0
   -0.1752    0.0000    0.0000 C   0  0  0  0  0  0  0  0  0  0  0  0
   -0.5150    0.0000    0.0000 C   0  0  0  0  0  0  0  0  0  0  0  0
   -0.9861    0.0000    0.0000 C   0  0  0  0  0  0  0  0  0  0  0  0
   -1.3486    0.0000    0.0000 C   0  0  0  0  0  0  0  0  0  0  0  0
   -1.9454    0.0000    0.0000 C   0  0  0  0  0  0  0  0  0  0  0  0
   -2.7642    0.0000    0.0000 C   0  0  0  0  0  0  0  0  0  0  0  0
    1.8606    0.0000    0.0000 C   0  0  0  0  0  0  0  0  0  0  0  0
    2.5937    0.0000    0.0000 C   0  0  0  0  0  0  0  0  0  0  0  0
    2.4059    0.0000    0.0000 O   0  0  0  0  0  0  0  0  0  0  0  0
    3.3834    0.0000    0.0000 O   0  0  0  0  0  0  0  0  0  0  0  0
    3.9851    0.0000    0.0000 C   0  0  0  0  0  0  0  0  0  0  0  0
    3.7973    0.0000    0.0000 C   0  0  0  0  0  0  0  0  0  0  0  0
    4.3991    0.0000    0.0000 C   0  0  0  0  0  0  0  0  0  0  0  0
    5.1887    0.0000    0.0000 C   0  0  0  0  0  0  0  0  0  0  0  0
    5.3766    0.0000    0.0000 C   0  0  0  0  0  0  0  0  0  0  0  0
    4.7748    0.0000    0.0000 O   0  0  0  0  0  0  0  0  0  0  0  0
    6.1661    0.0000    0.0000 C   0  0  0  0  0  0  0  0  0  0  0  0
    6.3539    0.0000    0.0000 O   0  0  0  0  0  0  0  0  0  0  0  0
    5.7904    0.0000    0.0000 O   0  0  0  0  0  0  0  0  0  0  0  0
    4.2112    0.0000    0.0000 O   0  0  0  0  0  0  0  0  0  0  0  0
    3.0077    0.0000    0.0000 O   0  0  0  0  0  0  0  0  0  0  0  0
    0.6491    0.0000    0.0000 C   0  0  0  0  0  0  0  0  0  0  0  0
   -0.4878    0.0000    0.0000 C   0  0  0  0  0  0  0  0  0  0  0  0
   -0.3941    0.0000    0.0000 O   0  0  0  0  0  0  0  0  0  0  0  0
   -1.8137    0.0000    0.0000 O   0  0  0  0  0  0  0  0  0  0  0  0
   -3.3272    0.0000    0.0000 O   0  0  0  0  0  0  0  0  0  0  0  0
   -3.2334    0.0000    0.0000 C   0  0  0  0  0  0  0  0  0  0  0  0
   -3.8964    0.0000    0.0000 C   0  0  0  0  0  0  0  0  0  0  0  0
   -3.8027    0.0000    0.0000 C   0  0  0  0  0  0  0  0  0  0  0  0
   -3.0460    0.0000    0.0000 C   0  0  0  0  0  0  0  0  0  0  0  0
   -2.3830    0.0000    0.0000 C   0  0  0  0  0  0  0  0  0  0  0  0
   -2.4767    0.0000    0.0000 O   0  0  0  0  0  0  0  0  0  0  0  0
   -1.6263    0.0000    0.0000 C   0  0  0  0  0  0  0  0  0  0  0  0
   -0.9633    0.0000    0.0000 O   0  0  0  0  0  0  0  0  0  0  0  0
   -2.9522    0.0000    0.0000 O   0  0  0  0  0  0  0  0  0  0  0  0
   -4.4657    0.0000    0.0000 O   0  0  0  0  0  0  0  0  0  0  0  0
   -4.6531    0.0000    0.0000 O   0  0  0  0  0  0  0  0  0  0  0  0
   -3.6649    0.0000    0.0000 O   0  0  0  0  0  0  0  0  0  0  0  0
   -5.1528    0.0000    0.0000 O   0  0  0  0  0  0  0  0  0  0  0  0
   -6.1664    0.0000    0.0000 O   0  0  0  0  0  0  0  0  0  0  0  0
  1  2  1  0      
  2  3  1  0      
  3  4  1  0      
  4  5  1  0      
  5  6  1  0      
  6  7  1  0      
  2  7  1  0      
  6  8  1  0      
  8  9  1  0      
  9 10  1  0      
 10 11  1  0      
 11 12  1  0      
 12 13  1  0      
 13 14  1  0      
  9 14  1  0      
 14 15  1  0      
 15 16  1  0      
 16 17  1  0      
 17 18  1  0      
 18 19  1  0      
 19 20  1  0      
 20 21  1  0      
 21 22  1  0      
 22 23  1  0      
 23 24  1  0      
 24 25  1  0      
 20 25  1  0      
 25 26  1  0      
 26 27  1  0      
 27 28  1  0      
 19 28  1  0      
 28 29  1  0      
 16 29  1  0      
 28 30  1  0      
 30 31  1  0      
 16 31  1  0      
 31 32  2  0      
 24 33  1  0      
 24 34  1  0      
 34 35  2  0      
 34 36  1  0      
 36 37  1  0      
 37 38  1  0      
 38 39  1  0      
 39 40  1  0      
 40 41  1  0      
 41 42  1  0      
 37 42  1  0      
 41 43  1  0      
 43 44  1  0      
 40 45  1  0      
 39 46  1  0      
 38 47  1  0      
 20 48  1  0      
 12 49  1  0      
 49 50  1  0      
 11 51  1  0      
 10 52  1  0      
 52 53  1  0      
 53 54  1  0      
 54 55  1  0      
 55 56  1  0      
 56 57  1  0      
 57 58  1  0      
 53 58  1  0      
 57 59  1  0      
 59 60  1  0      
 56 61  1  0      
 55 62  1  0      
 54 63  1  0      
  5 64  1  0      
  4 65  1  0      
  3 66  1  0      
M  END
>  <Bioactivity>
Dulcoside B (Rebaudioside C) is used as natural sweeteners to diabetics and others on carbohydrate-controlled diets.

>  <CAS>
63550-99-2

>  <Col>
6

>  <Formula>
C44H70O22

>  <ID>
T3365

>  <Index>
675

>  <MOLENAME>
Dulcoside B

>  <MolWt>
951.02

>  <Pathways>
Others

>  <Plate>
PLATE 009

>  <QR code>
1151480856

>  <Receptor>
Others

>  <Reference>
1. Brandle JE, et al. Phytochemistry. 2007 Jul;68(14):1855-63. 

>  <Row>
D

>  <SMILES>
CC1C(C(C(C(O1)OC2C(C(C(OC2OC34CCC5C6(CCCC(C6CCC5(C3)CC4=C)(C)C(=O)OC7C(C(C(C(O7)CO)O)O)O)C)CO)O)OC8C(C(C(C(O8)CO)O)O)O)O)O)O

>  <Target>
Others

>  <Weight>
10.2mg

$$$$
Lab-1.sdf
  ChemDraw05232018482D

 24 26  0  0  0  0  0  0  0  0999 V2000
    3.5309    0.0000    0.0000 C   0  0  0  0  0  0  0  0  0  0  0  0
    2.9178    0.0000    0.0000 C   0  0  0  0  0  0  0  0  0  0  0  0
    3.5309    0.0000    0.0000 C   0  0  0  0  0  0  0  0  0  0  0  0
    2.4329    0.0000    0.0000 S   0  0  0  0  0  0  0  0  0  0  0  0
    1.6482    0.0000    0.0000 C   0  0  0  0  0  0  0  0  0  0  0  0
    0.8232    0.0000    0.0000 C   0  0  0  0  0  0  0  0  0  0  0  0
    0.2399    0.0000    0.0000 N   0  0  0  0  0  0  0  0  0  0  0  0
   -0.5569    0.0000    0.0000 C   0  0  0  0  0  0  0  0  0  0  0  0
   -0.7704    0.0000    0.0000 O   0  0  0  0  0  0  0  0  0  0  0  0
   -1.1403    0.0000    0.0000 C   0  0  0  0  0  0  0  0  0  0  0  0
   -0.9267    0.0000    0.0000 N   0  0  0  0  0  0  0  0  0  0  0  0
   -1.9372    0.0000    0.0000 C   0  0  0  0  0  0  0  0  0  0  0  0
   -2.5205    0.0000    0.0000 C   0  0  0  0  0  0  0  0  0  0  0  0
   -3.3174    0.0000    0.0000 C   0  0  0  0  0  0  0  0  0  0  0  0
   -3.5309    0.0000    0.0000 C   0  0  0  0  0  0  0  0  0  0  0  0
   -2.9476    0.0000    0.0000 C   0  0  0  0  0  0  0  0  0  0  0  0
   -2.1507    0.0000    0.0000 C   0  0  0  0  0  0  0  0  0  0  0  0
    0.8232    0.0000    0.0000 C   0  0  0  0  0  0  0  0  0  0  0  0
    0.2399    0.0000    0.0000 O   0  0  0  0  0  0  0  0  0  0  0  0
    1.6482    0.0000    0.0000 N   0  0  0  0  0  0  0  0  0  0  0  0
    2.4329    0.0000    0.0000 C   0  0  0  0  0  0  0  0  0  0  0  0
    2.6878    0.0000    0.0000 C   0  0  0  0  0  0  0  0  0  0  0  0
    2.1358    0.0000    0.0000 O   0  0  0  0  0  0  0  0  0  0  0  0
    3.4948    0.0000    0.0000 O   0  0  0  0  0  0  0  0  0  0  0  0
  1  2  1  0      
  2  3  1  0      
  2  4  1  0      
  4  5  1  0      
  5  6  1  0      
  6  7  1  0      
  7  8  1  0      
  8  9  2  0      
  8 10  1  0      
 10 11  1  0      
 10 12  1  0      
 12 13  2  0      
 13 14  1  0      
 14 15  2  0      
 15 16  1  0      
 16 17  2  0      
 12 17  1  0      
  6 18  1  0      
 18 19  2  0      
 18 20  1  0      
  5 20  1  0      
 20 21  1  0      
  2 21  1  0      
 21 22  1  0      
 22 23  1  0      
 22 24  2  0      
M  END
>  <Bioactivity>
Ampicillin is an orally active broad-spectrum antibiotic.

>  <CAS>
69-53-4

>  <Col>
7

>  <Formula>
C16H19N3O4S

>  <ID>
T0814L

>  <Index>
676

>  <MOLENAME>
Ampicillin

>  <MolWt>
349.4

>  <Pathways>
Microbiology & Virology

>  <Plate>
PLATE 009

>  <QR code>
1151480857

>  <Receptor>
PBPs

>  <Reference>
1. Babu E, et al. Jpn J Pharmacol. 2002 Jan;88(1):69-76. 

>  <Row>
D

>  <SMILES>
CC1(C)SC2C(NC(=O)C(N)C3=CC=CC=C3)C(=O)N2C1C(O)=O

>  <Target>
Antibiotic

>  <Weight>
10.4mg

$$$$
Lab-1.sdf
  ChemDraw05232018482D

 44 44  0  0  0  0  0  0  0  0999 V2000
   -0.7660    0.0000    0.0000 O   0  0  0  0  0  0  0  0  0  0  0  0
   -0.7660    0.0000    0.0000 S   0  0  0  0  0  0  0  0  0  0  0  0
   -0.7660    0.0000    0.0000 O   0  0  0  0  0  0  0  0  0  0  0  0
    0.0590    0.0000    0.0000 O   0  0  0  0  0  0  0  0  0  0  0  0
   -1.5910    0.0000    0.0000 O   0  0  0  0  0  0  0  0  0  0  0  0
    2.6518    0.0000    0.0000 O   0  0  0  0  0  0  0  0  0  0  0  0
    2.6518    0.0000    0.0000 S   0  0  0  0  0  0  0  0  0  0  0  0
    2.6518    0.0000    0.0000 O   0  0  0  0  0  0  0  0  0  0  0  0
    3.4768    0.0000    0.0000 O   0  0  0  0  0  0  0  0  0  0  0  0
    1.8268    0.0000    0.0000 O   0  0  0  0  0  0  0  0  0  0  0  0
    0.8099    0.0000    0.0000 C   0  0  0  0  0  0  0  0  0  0  0  0
    0.8099    0.0000    0.0000 N   0  0  0  0  0  0  0  0  0  0  0  0
    0.0955    0.0000    0.0000 C   0  0  0  0  0  0  0  0  0  0  0  0
    0.0955    0.0000    0.0000 C   0  0  0  0  0  0  0  0  0  0  0  0
    0.8099    0.0000    0.0000 O   0  0  0  0  0  0  0  0  0  0  0  0
   -0.6190    0.0000    0.0000 C   0  0  0  0  0  0  0  0  0  0  0  0
   -0.6190    0.0000    0.0000 O   0  0  0  0  0  0  0  0  0  0  0  0
   -1.3334    0.0000    0.0000 C   0  0  0  0  0  0  0  0  0  0  0  0
   -2.0479    0.0000    0.0000 C   0  0  0  0  0  0  0  0  0  0  0  0
   -2.0479    0.0000    0.0000 N   0  0  0  0  0  0  0  0  0  0  0  0
   -2.7623    0.0000    0.0000 C   0  0  0  0  0  0  0  0  0  0  0  0
   -2.7623    0.0000    0.0000 C   0  0  0  0  0  0  0  0  0  0  0  0
   -3.4768    0.0000    0.0000 N   0  0  0  0  0  0  0  0  0  0  0  0
   -2.0479    0.0000    0.0000 C   0  0  0  0  0  0  0  0  0  0  0  0
   -2.0479    0.0000    0.0000 O   0  0  0  0  0  0  0  0  0  0  0  0
   -1.3334    0.0000    0.0000 C   0  0  0  0  0  0  0  0  0  0  0  0
   -0.6190    0.0000    0.0000 O   0  0  0  0  0  0  0  0  0  0  0  0
    0.0955    0.0000    0.0000 C   0  0  0  0  0  0  0  0  0  0  0  0
    0.8099    0.0000    0.0000 C   0  0  0  0  0  0  0  0  0  0  0  0
    0.8099    0.0000    0.0000 C   0  0  0  0  0  0  0  0  0  0  0  0
    1.5244    0.0000    0.0000 O   0  0  0  0  0  0  0  0  0  0  0  0
    0.0955    0.0000    0.0000 C   0  0  0  0  0  0  0  0  0  0  0  0
    0.8099    0.0000    0.0000 O   0  0  0  0  0  0  0  0  0  0  0  0
   -0.6190    0.0000    0.0000 C   0  0  0  0  0  0  0  0  0  0  0  0
   -0.6190    0.0000    0.0000 O   0  0  0  0  0  0  0  0  0  0  0  0
   -1.3334    0.0000    0.0000 C   0  0  0  0  0  0  0  0  0  0  0  0
   -2.0479    0.0000    0.0000 N   0  0  0  0  0  0  0  0  0  0  0  0
   -1.3334    0.0000    0.0000 C   0  0  0  0  0  0  0  0  0  0  0  0
   -0.6190    0.0000    0.0000 O   0  0  0  0  0  0  0  0  0  0  0  0
   -1.3334    0.0000    0.0000 O   0  0  0  0  0  0  0  0  0  0  0  0
   -1.3334    0.0000    0.0000 C   0  0  0  0  0  0  0  0  0  0  0  0
   -0.6190    0.0000    0.0000 C   0  0  0  0  0  0  0  0  0  0  0  0
   -1.0062    0.0000    0.0000 C   0  0  0  0  0  0  0  0  0  0  0  0
   -0.2317    0.0000    0.0000 O   0  0  0  0  0  0  0  0  0  0  0  0
  1  2  1  0      
  2  3  1  0      
  2  4  2  0      
  2  5  2  0      
  6  7  1  0      
  7  8  1  0      
  7  9  2  0      
  7 10  2  0      
 11 12  1  0      
 12 13  1  0      
 13 14  1  0      
 14 15  1  0      
 14 16  1  0      
 16 17  1  0      
 17 18  1  0      
 18 19  1  0      
 19 20  1  0      
 19 21  1  0      
 21 22  1  0      
 22 23  1  0      
 22 24  1  0      
 24 25  1  0      
 25 26  1  0      
 26 27  1  0      
 27 28  1  0      
 28 29  1  0      
 29 30  1  0      
 29 31  1  0      
 28 32  1  0      
 32 33  1  0      
 32 34  1  0      
 34 35  1  0      
 34 36  1  0      
 26 36  1  0      
 36 37  1  0      
 24 38  1  0      
 18 38  1  0      
 38 39  1  0      
 16 40  1  0      
 40 41  1  0      
 41 42  1  0      
 13 42  1  0      
 42 43  1  0      
 42 44  1  0      
M  END
>  <Bioactivity>
Geneticin blocks polypeptide synthesis by inhibiting the elongation step in both prokaryotic and eukaryotic cells.

>  <CAS>
108321-42-2

>  <Col>
8

>  <Formula>
C20H40N4O10?2H2O4S

>  <ID>
T6512

>  <Index>
677

>  <MOLENAME>
Geneticin (G418 Sulfate)

>  <MolWt>
692.71

>  <Pathways>
Others

>  <Plate>
PLATE 009

>  <QR code>
1151480858

>  <Receptor>
Others

>  <Reference>
1. Davies J, et al. Am J Trop Med Hyg, 1980, 29(5 Suppl), 1089-1092

>  <Row>
D

>  <SMILES>
OS(O)(=O)=O.OS(O)(=O)=O.CNC1C(O)C(OC2C(N)CC(N)C(OC3OC(C(C)O)C(O)C(O)C3N)C2O)OCC1(C)O

>  <Target>
Others

>  <Weight>
10.4mg

$$$$
Lab-1.sdf
  ChemDraw05232018482D

 23 26  0  0  0  0  0  0  0  0999 V2000
   -2.1034    0.0000    0.0000 C   0  0  0  0  0  0  0  0  0  0  0  0
   -1.4404    0.0000    0.0000 C   0  0  0  0  0  0  0  0  0  0  0  0
   -0.8374    0.0000    0.0000 C   0  0  0  0  0  0  0  0  0  0  0  0
   -0.0056    0.0000    0.0000 C   0  0  0  0  0  0  0  0  0  0  0  0
    0.1829    0.0000    0.0000 C   0  0  0  0  0  0  0  0  0  0  0  0
    1.0015    0.0000    0.0000 C   0  0  0  0  0  0  0  0  0  0  0  0
    1.5444    0.0000    0.0000 C   0  0  0  0  0  0  0  0  0  0  0  0
    2.3538    0.0000    0.0000 C   0  0  0  0  0  0  0  0  0  0  0  0
    2.6202    0.0000    0.0000 C   0  0  0  0  0  0  0  0  0  0  0  0
    2.0772    0.0000    0.0000 C   0  0  0  0  0  0  0  0  0  0  0  0
    1.2679    0.0000    0.0000 C   0  0  0  0  0  0  0  0  0  0  0  0
    0.7293    0.0000    0.0000 C   0  0  0  0  0  0  0  0  0  0  0  0
   -0.0900    0.0000    0.0000 C   0  0  0  0  0  0  0  0  0  0  0  0
   -0.4298    0.0000    0.0000 C   0  0  0  0  0  0  0  0  0  0  0  0
   -0.9009    0.0000    0.0000 C   0  0  0  0  0  0  0  0  0  0  0  0
   -1.2634    0.0000    0.0000 C   0  0  0  0  0  0  0  0  0  0  0  0
   -1.8601    0.0000    0.0000 C   0  0  0  0  0  0  0  0  0  0  0  0
   -2.6789    0.0000    0.0000 O   0  0  0  0  0  0  0  0  0  0  0  0
    2.6789    0.0000    0.0000 C   0  0  0  0  0  0  0  0  0  0  0  0
    1.9458    0.0000    0.0000 C   0  0  0  0  0  0  0  0  0  0  0  0
    2.5855    0.0000    0.0000 O   0  0  0  0  0  0  0  0  0  0  0  0
    1.1749    0.0000    0.0000 O   0  0  0  0  0  0  0  0  0  0  0  0
    0.7344    0.0000    0.0000 C   0  0  0  0  0  0  0  0  0  0  0  0
  1  2  1  0      
  2  3  1  0      
  3  4  1  0      
  4  5  1  0      
  5  6  1  0      
  6  7  1  0      
  7  8  1  0      
  8  9  1  0      
  9 10  1  0      
 10 11  1  0      
  6 11  1  0      
 11 12  1  0      
 12 13  1  0      
 13 14  1  0      
  5 14  1  0      
 14 15  1  0      
  2 15  1  0      
 14 16  1  0      
 16 17  1  0      
  2 17  1  0      
 17 18  2  0      
 10 19  1  0      
 10 20  1  0      
 20 21  2  0      
 20 22  1  0      
  6 23  1  0      
M  END
>  <Bioactivity>
Stevioside, a common natural sweetener, belongs to tetracyclic diterpene glycosides. The pharmacology researches have suggested that stevioside and its hydrolysis products, steviol, isosteviol and ste
violbioside, have many biological activities, such as reducing blood glucose, lowering blood pressure, anti-inflammation, anti-tumor, anti-diarrhea, antibacterium, immunoregulation, etc

>  <CAS>
27975-19-5

>  <Col>
9

>  <Formula>
C20H30O3

>  <ID>
T3332

>  <Index>
678

>  <MOLENAME>
Isosteviol

>  <MolWt>
318.45

>  <Pathways>
Immunology/Inflammation, Membrane Transporter/Ion Channel

>  <Plate>
PLATE 009

>  <QR code>
1151480859

>  <Receptor>
NF-¦ÊB; TNF-¦Á; IL-6; COX-2; Potassium Channel

>  <Reference>
1. Wang Z, et al.  Biochem Biophys Res Commun,2012, 417(4): 1280-1285.

>  <Row>
D

>  <SMILES>
CC12CCC3C4(CCCC(C4CCC3(C1)CC2=O)(C)C(=O)O)C

>  <Target>
NF-¦ÊB; TNF-¦Á; IL-6; COX-2; Potassium Channel inhibitor

>  <Weight>
10.3mg

$$$$
Lab-1.sdf
  ChemDraw05232018482D

 19 21  0  0  0  0  0  0  0  0999 V2000
   -2.5006    0.0000    0.0000 C   0  0  0  0  0  0  0  0  0  0  0  0
   -1.7861    0.0000    0.0000 O   0  0  0  0  0  0  0  0  0  0  0  0
   -1.7861    0.0000    0.0000 C   0  0  0  0  0  0  0  0  0  0  0  0
   -2.5006    0.0000    0.0000 C   0  0  0  0  0  0  0  0  0  0  0  0
   -2.5006    0.0000    0.0000 C   0  0  0  0  0  0  0  0  0  0  0  0
   -1.7861    0.0000    0.0000 C   0  0  0  0  0  0  0  0  0  0  0  0
   -1.0717    0.0000    0.0000 C   0  0  0  0  0  0  0  0  0  0  0  0
   -1.0717    0.0000    0.0000 C   0  0  0  0  0  0  0  0  0  0  0  0
   -0.3573    0.0000    0.0000 C   0  0  0  0  0  0  0  0  0  0  0  0
   -0.3573    0.0000    0.0000 O   0  0  0  0  0  0  0  0  0  0  0  0
    0.3572    0.0000    0.0000 C   0  0  0  0  0  0  0  0  0  0  0  0
    0.3572    0.0000    0.0000 C   0  0  0  0  0  0  0  0  0  0  0  0
   -0.3573    0.0000    0.0000 O   0  0  0  0  0  0  0  0  0  0  0  0
    1.0717    0.0000    0.0000 C   0  0  0  0  0  0  0  0  0  0  0  0
    1.7862    0.0000    0.0000 C   0  0  0  0  0  0  0  0  0  0  0  0
    2.5006    0.0000    0.0000 C   0  0  0  0  0  0  0  0  0  0  0  0
    2.5006    0.0000    0.0000 C   0  0  0  0  0  0  0  0  0  0  0  0
    1.7862    0.0000    0.0000 C   0  0  0  0  0  0  0  0  0  0  0  0
    1.0717    0.0000    0.0000 C   0  0  0  0  0  0  0  0  0  0  0  0
  1  2  1  0      
  2  3  1  0      
  3  4  4  0      
  4  5  4  0      
  5  6  4  0      
  6  7  4  0      
  7  8  4  0      
  3  8  4  0      
  8  9  4  0      
  9 10  2  0      
  9 11  4  0      
 11 12  4  0      
 12 13  4  0      
  7 13  4  0      
 12 14  1  0      
 14 15  4  0      
 15 16  4  0      
 16 17  4  0      
 17 18  4  0      
 18 19  4  0      
 14 19  4  0      
M  END
>  <Bioactivity>
5-methoxyflavone  is a naturally occurring, low molecular weight flavonoids compound that associated with a wide wariety of biological activities.

>  <CAS>
42079-78-7

>  <Col>
10

>  <Formula>
C16H12O3

>  <ID>
T3343

>  <Index>
679

>  <MOLENAME>
5-methoxyflavone

>  <MolWt>
252.26

>  <Pathways>
Others

>  <Plate>
PLATE 009

>  <QR code>
1151480860

>  <Receptor>
Others

>  <Reference>
1. J. Org. Chem., 1993, 58 (27): 7903?7905

>  <Row>
D

>  <SMILES>
COc1cccc2c1c(=O)cc(o2)c1ccccc1

>  <Target>
Others

>  <Weight>
10.1mg

$$$$
Lab-1.sdf
  ChemDraw05232018482D

 15 15  0  0  0  0  0  0  0  0999 V2000
   -0.7145    0.0000    0.0000 C   0  0  0  0  0  0  0  0  0  0  0  0
    0.0000    0.0000    0.0000 O   0  0  0  0  0  0  0  0  0  0  0  0
    0.0000    0.0000    0.0000 C   0  0  0  0  0  0  0  0  0  0  0  0
    0.7144    0.0000    0.0000 C   0  0  0  0  0  0  0  0  0  0  0  0
    0.7144    0.0000    0.0000 C   0  0  0  0  0  0  0  0  0  0  0  0
    0.0000    0.0000    0.0000 C   0  0  0  0  0  0  0  0  0  0  0  0
   -0.7145    0.0000    0.0000 C   0  0  0  0  0  0  0  0  0  0  0  0
   -0.7145    0.0000    0.0000 C   0  0  0  0  0  0  0  0  0  0  0  0
   -1.4290    0.0000    0.0000 O   0  0  0  0  0  0  0  0  0  0  0  0
   -1.4290    0.0000    0.0000 C   0  0  0  0  0  0  0  0  0  0  0  0
   -1.4290    0.0000    0.0000 O   0  0  0  0  0  0  0  0  0  0  0  0
   -2.1434    0.0000    0.0000 C   0  0  0  0  0  0  0  0  0  0  0  0
    1.4289    0.0000    0.0000 C   0  0  0  0  0  0  0  0  0  0  0  0
    1.4289    0.0000    0.0000 C   0  0  0  0  0  0  0  0  0  0  0  0
    2.1434    0.0000    0.0000 C   0  0  0  0  0  0  0  0  0  0  0  0
  1  2  1  0      
  2  3  1  0      
  3  4  2  0      
  4  5  1  0      
  5  6  2  0      
  6  7  1  0      
  7  8  2  0      
  3  8  1  0      
  8  9  1  0      
  9 10  1  0      
  7 11  1  0      
 11 12  1  0      
  5 13  1  0      
 13 14  1  0      
 14 15  2  0      
M  END
>  <Bioactivity>
Elemicin is a constituent of several plant species' essential oils. It has anticholinergic effects in humans

>  <CAS>
487-11-6

>  <Col>
11

>  <Formula>
C12H16O3

>  <ID>
T3341

>  <Index>
680

>  <MOLENAME>
Elemicin

>  <MolWt>
208.25

>  <Pathways>
Neuroscience

>  <Plate>
PLATE 009

>  <QR code>
1151480861

>  <Receptor>
5-HT2A

>  <Reference>
1. Maria Gracia N, et al. Philippine Pharmacists Association, 2014, 3(1)

>  <Row>
D

>  <SMILES>
COC1=CC(=CC(=C1OC)OC)CC=C

>  <Target>
5-HT2A agonist

>  <Weight>
10.3mg

$$$$
Lab-1.sdf
  ChemDraw05232018482D

 26 27  0  0  0  0  0  0  0  0999 V2000
    2.1434    0.0000    0.0000 C   0  0  0  0  0  0  0  0  0  0  0  0
    2.8579    0.0000    0.0000 C   0  0  0  0  0  0  0  0  0  0  0  0
    2.8579    0.0000    0.0000 C   0  0  0  0  0  0  0  0  0  0  0  0
    2.1434    0.0000    0.0000 C   0  0  0  0  0  0  0  0  0  0  0  0
    2.1434    0.0000    0.0000 C   0  0  0  0  0  0  0  0  0  0  0  0
    2.8579    0.0000    0.0000 C   0  0  0  0  0  0  0  0  0  0  0  0
    2.8579    0.0000    0.0000 C   0  0  0  0  0  0  0  0  0  0  0  0
    2.1434    0.0000    0.0000 C   0  0  0  0  0  0  0  0  0  0  0  0
    1.4289    0.0000    0.0000 C   0  0  0  0  0  0  0  0  0  0  0  0
    1.4289    0.0000    0.0000 C   0  0  0  0  0  0  0  0  0  0  0  0
    0.7144    0.0000    0.0000 O   0  0  0  0  0  0  0  0  0  0  0  0
    0.7144    0.0000    0.0000 C   0  0  0  0  0  0  0  0  0  0  0  0
    0.7144    0.0000    0.0000 O   0  0  0  0  0  0  0  0  0  0  0  0
    0.0001    0.0000    0.0000 C   0  0  0  0  0  0  0  0  0  0  0  0
   -0.7144    0.0000    0.0000 C   0  0  0  0  0  0  0  0  0  0  0  0
   -1.4289    0.0000    0.0000 C   0  0  0  0  0  0  0  0  0  0  0  0
   -2.1433    0.0000    0.0000 C   0  0  0  0  0  0  0  0  0  0  0  0
   -2.8578    0.0000    0.0000 C   0  0  0  0  0  0  0  0  0  0  0  0
   -2.8578    0.0000    0.0000 C   0  0  0  0  0  0  0  0  0  0  0  0
   -2.1433    0.0000    0.0000 C   0  0  0  0  0  0  0  0  0  0  0  0
   -1.4289    0.0000    0.0000 C   0  0  0  0  0  0  0  0  0  0  0  0
   -3.5722    0.0000    0.0000 O   0  0  0  0  0  0  0  0  0  0  0  0
    2.1434    0.0000    0.0000 O   0  0  0  0  0  0  0  0  0  0  0  0
    1.4289    0.0000    0.0000 C   0  0  0  0  0  0  0  0  0  0  0  0
    3.5722    0.0000    0.0000 O   0  0  0  0  0  0  0  0  0  0  0  0
    3.5722    0.0000    0.0000 C   0  0  0  0  0  0  0  0  0  0  0  0
  1  2  1  0      
  2  3  2  0      
  3  4  1  0      
  4  5  1  0      
  5  6  2  0      
  6  7  1  0      
  7  8  2  0      
  8  9  1  0      
  9 10  2  0      
  5 10  1  0      
 10 11  1  0      
  9 12  1  0      
 12 13  2  0      
 14 12  1  4      
 14 15  2  0      
 15 16  1  0      
 16 17  2  0      
 17 18  1  0      
 18 19  2  0      
 19 20  1  0      
 20 21  2  0      
 16 21  1  0      
 19 22  1  0      
  8 23  1  0      
 23 24  1  0      
  6 25  1  0      
  2 26  1  0      
M  END
>  <Bioactivity>
Xanthohumol, a prenylated chalcone from hop, inhibits?COX-1?and COX-2 activity and shows chemopreventive effects. Phase 1. It has been showed the properties of antioxidation, anti-Y and anti-virus

>  <CAS>
6754-58-1

>  <Col>
2

>  <Formula>
C21H22O5

>  <ID>
T3342

>  <Index>
681

>  <MOLENAME>
Xanthohumol

>  <MolWt>
354.4

>  <Pathways>
Metabolism/ Neuroscience

>  <Plate>
PLATE 009

>  <QR code>
1151480849

>  <Receptor>
COX

>  <Reference>
1. Gerhauser C, et al. Mol Y Ther. 2002, 1(11), 959-969.

>  <Row>
E

>  <SMILES>
CC(=CCC1=C(C=C(C(=C1O)C(=O)C=CC2=CC=C(C=C2)O)OC)O)C

>  <Target>
COX inhibitor

>  <Weight>
9.9mg

$$$$
Lab-1.sdf
  ChemDraw05232018482D

 23 22  0  0  0  0  0  0  0  0999 V2000
   -3.7417    0.0000    0.0000 Zn  0  2  0  0  0  0  0  0  0  0  0  0
    1.5983    0.0000    0.0000 O   0  0  0  0  0  0  0  0  0  0  0  0
    2.3128    0.0000    0.0000 C   0  0  0  0  0  0  0  0  0  0  0  0
    3.0273    0.0000    0.0000 O   0  0  0  0  0  0  0  0  0  0  0  0
    2.3128    0.0000    0.0000 C   0  0  0  0  0  0  0  0  0  0  0  0
    3.0273    0.0000    0.0000 C   0  0  0  0  0  0  0  0  0  0  0  0
    3.0273    0.0000    0.0000 C   0  0  0  0  0  0  0  0  0  0  0  0
    3.7417    0.0000    0.0000 O   0  0  0  0  0  0  0  0  0  0  0  0
    2.3128    0.0000    0.0000 N   0  0  0  0  0  0  0  0  0  0  0  0
    1.5983    0.0000    0.0000 C   0  0  0  0  0  0  0  0  0  0  0  0
    0.8839    0.0000    0.0000 O   0  0  0  0  0  0  0  0  0  0  0  0
    1.5983    0.0000    0.0000 N   0  0  0  0  0  0  0  0  0  0  0  0
   -3.0273    0.0000    0.0000 O   0  5  0  0  0  0  0  0  0  0  0  0
   -2.3128    0.0000    0.0000 C   0  0  0  0  0  0  0  0  0  0  0  0
   -1.5984    0.0000    0.0000 O   0  0  0  0  0  0  0  0  0  0  0  0
   -2.3128    0.0000    0.0000 C   0  0  0  0  0  0  0  0  0  0  0  0
   -1.5984    0.0000    0.0000 C   0  0  0  0  0  0  0  0  0  0  0  0
   -1.5984    0.0000    0.0000 C   0  0  0  0  0  0  0  0  0  0  0  0
   -0.8839    0.0000    0.0000 O   0  5  0  0  0  0  0  0  0  0  0  0
   -2.3128    0.0000    0.0000 N   0  0  0  0  0  0  0  0  0  0  0  0
   -3.0273    0.0000    0.0000 C   0  0  0  0  0  0  0  0  0  0  0  0
   -3.7417    0.0000    0.0000 O   0  0  0  0  0  0  0  0  0  0  0  0
   -3.0273    0.0000    0.0000 N   0  0  0  0  0  0  0  0  0  0  0  0
  2  3  1  0      
  3  4  2  0      
  3  5  1  0      
  5  6  2  0      
  6  7  1  0      
  7  8  2  0      
  7  9  1  0      
  9 10  1  0      
 10 11  2  0      
 10 12  1  0      
  5 12  1  0      
 13 14  1  0      
 14 15  2  0      
 14 16  1  0      
 16 17  2  0      
 17 18  1  0      
 18 19  1  0      
 18 20  2  0      
 20 21  1  0      
 21 22  2  0      
 21 23  1  0      
 16 23  1  0      
M  CHG  3   1   2  13  -1  19  -1
M  END
>  <Bioactivity>
This compound belongs to the class of organic compounds known as pyrimidinecarboxylic acids. These are pyrimidines with a structure containing a carboxyl group attached to the pyrimidine ring.

>  <CAS>
68399-76-8

>  <Col>
3

>  <Formula>
C10H6N4O8Zn

>  <ID>
T3271

>  <Index>
682

>  <MOLENAME>
OROTIC ACID ZINC SALT DIHYDRATE

>  <MolWt>
375.558

>  <Pathways>
Others

>  <Plate>
PLATE 009

>  <QR code>
1151480848

>  <Receptor>
Others

>  <Reference>
1. L?ffler M, et al. Orotate (orotic acid): An essential and versatile molecule. Nucleosides Nucleotides Nucleic Acids. 2016 Dec;35(10-12):566-577.

>  <Row>
E

>  <SMILES>
[Zn++].OC(=O)C1=CC(=O)NC(=O)N1.[O-]C(=O)C1=CC([O-])=NC(=O)N1

>  <Target>
Others

>  <Weight>
10.3mg

$$$$
Lab-1.sdf
  ChemDraw05232018482D

 66 72  0  0  0  0  0  0  0  0999 V2000
    3.6952    0.0000    0.0000 C   0  0  0  0  0  0  0  0  0  0  0  0
    3.0438    0.0000    0.0000 C   0  0  0  0  0  0  0  0  0  0  0  0
    3.1567    0.0000    0.0000 C   0  0  0  0  0  0  0  0  0  0  0  0
    2.5053    0.0000    0.0000 C   0  0  0  0  0  0  0  0  0  0  0  0
    2.6182    0.0000    0.0000 C   0  0  0  0  0  0  0  0  0  0  0  0
    1.9668    0.0000    0.0000 C   0  0  0  0  0  0  0  0  0  0  0  0
    1.3154    0.0000    0.0000 C   0  0  0  0  0  0  0  0  0  0  0  0
    1.4604    0.0000    0.0000 C   0  0  0  0  0  0  0  0  0  0  0  0
    1.6897    0.0000    0.0000 C   0  0  0  0  0  0  0  0  0  0  0  0
    1.0069    0.0000    0.0000 C   0  0  0  0  0  0  0  0  0  0  0  0
    0.3555    0.0000    0.0000 C   0  0  0  0  0  0  0  0  0  0  0  0
    0.6358    0.0000    0.0000 C   0  0  0  0  0  0  0  0  0  0  0  0
    0.1040    0.0000    0.0000 C   0  0  0  0  0  0  0  0  0  0  0  0
   -0.7081    0.0000    0.0000 C   0  0  0  0  0  0  0  0  0  0  0  0
   -0.9884    0.0000    0.0000 C   0  0  0  0  0  0  0  0  0  0  0  0
   -0.4566    0.0000    0.0000 C   0  0  0  0  0  0  0  0  0  0  0  0
   -0.7369    0.0000    0.0000 C   0  0  0  0  0  0  0  0  0  0  0  0
   -1.5490    0.0000    0.0000 C   0  0  0  0  0  0  0  0  0  0  0  0
   -2.0808    0.0000    0.0000 C   0  0  0  0  0  0  0  0  0  0  0  0
   -1.8005    0.0000    0.0000 C   0  0  0  0  0  0  0  0  0  0  0  0
   -2.3324    0.0000    0.0000 C   0  0  0  0  0  0  0  0  0  0  0  0
   -3.1445    0.0000    0.0000 C   0  0  0  0  0  0  0  0  0  0  0  0
   -3.4248    0.0000    0.0000 C   0  0  0  0  0  0  0  0  0  0  0  0
   -2.8930    0.0000    0.0000 C   0  0  0  0  0  0  0  0  0  0  0  0
   -3.5048    0.0000    0.0000 C   0  0  0  0  0  0  0  0  0  0  0  0
   -2.7762    0.0000    0.0000 C   0  0  0  0  0  0  0  0  0  0  0  0
   -4.2370    0.0000    0.0000 O   0  0  0  0  0  0  0  0  0  0  0  0
   -4.7688    0.0000    0.0000 C   0  0  0  0  0  0  0  0  0  0  0  0
   -4.4885    0.0000    0.0000 C   0  0  0  0  0  0  0  0  0  0  0  0
   -5.0203    0.0000    0.0000 C   0  0  0  0  0  0  0  0  0  0  0  0
   -5.8324    0.0000    0.0000 C   0  0  0  0  0  0  0  0  0  0  0  0
   -6.1127    0.0000    0.0000 C   0  0  0  0  0  0  0  0  0  0  0  0
   -5.5809    0.0000    0.0000 O   0  0  0  0  0  0  0  0  0  0  0  0
   -6.9249    0.0000    0.0000 C   0  0  0  0  0  0  0  0  0  0  0  0
   -7.4568    0.0000    0.0000 O   0  0  0  0  0  0  0  0  0  0  0  0
   -6.3642    0.0000    0.0000 O   0  0  0  0  0  0  0  0  0  0  0  0
   -4.7400    0.0000    0.0000 O   0  0  0  0  0  0  0  0  0  0  0  0
   -3.6764    0.0000    0.0000 O   0  0  0  0  0  0  0  0  0  0  0  0
   -1.5202    0.0000    0.0000 C   0  0  0  0  0  0  0  0  0  0  0  0
    0.0752    0.0000    0.0000 C   0  0  0  0  0  0  0  0  0  0  0  0
    0.3843    0.0000    0.0000 O   0  0  0  0  0  0  0  0  0  0  0  0
    0.4151    0.0000    0.0000 C   0  0  0  0  0  0  0  0  0  0  0  0
    2.4732    0.0000    0.0000 O   0  0  0  0  0  0  0  0  0  0  0  0
    3.2905    0.0000    0.0000 C   0  0  0  0  0  0  0  0  0  0  0  0
    3.6014    0.0000    0.0000 C   0  0  0  0  0  0  0  0  0  0  0  0
    4.4186    0.0000    0.0000 C   0  0  0  0  0  0  0  0  0  0  0  0
    4.9250    0.0000    0.0000 C   0  0  0  0  0  0  0  0  0  0  0  0
    4.6141    0.0000    0.0000 C   0  0  0  0  0  0  0  0  0  0  0  0
    3.7968    0.0000    0.0000 O   0  0  0  0  0  0  0  0  0  0  0  0
    5.1204    0.0000    0.0000 C   0  0  0  0  0  0  0  0  0  0  0  0
    4.8095    0.0000    0.0000 O   0  0  0  0  0  0  0  0  0  0  0  0
    5.3159    0.0000    0.0000 C   0  0  0  0  0  0  0  0  0  0  0  0
    6.1331    0.0000    0.0000 C   0  0  0  0  0  0  0  0  0  0  0  0
    6.6396    0.0000    0.0000 C   0  0  0  0  0  0  0  0  0  0  0  0
    6.3286    0.0000    0.0000 C   0  0  0  0  0  0  0  0  0  0  0  0
    5.5113    0.0000    0.0000 C   0  0  0  0  0  0  0  0  0  0  0  0
    5.0050    0.0000    0.0000 O   0  0  0  0  0  0  0  0  0  0  0  0
    5.2005    0.0000    0.0000 C   0  0  0  0  0  0  0  0  0  0  0  0
    5.7068    0.0000    0.0000 O   0  0  0  0  0  0  0  0  0  0  0  0
    6.8350    0.0000    0.0000 O   0  0  0  0  0  0  0  0  0  0  0  0
    7.4568    0.0000    0.0000 O   0  0  0  0  0  0  0  0  0  0  0  0
    6.4440    0.0000    0.0000 O   0  0  0  0  0  0  0  0  0  0  0  0
    5.7422    0.0000    0.0000 O   0  0  0  0  0  0  0  0  0  0  0  0
    4.7295    0.0000    0.0000 O   0  0  0  0  0  0  0  0  0  0  0  0
    3.0950    0.0000    0.0000 O   0  0  0  0  0  0  0  0  0  0  0  0
    2.2796    0.0000    0.0000 C   0  0  0  0  0  0  0  0  0  0  0  0
  1  2  1  0      
  2  3  2  0      
  3  4  1  0      
  4  5  1  0      
  5  6  1  0      
  6  7  1  0      
  6  8  1  0      
  8  9  1  0      
  9 10  1  0      
 10 11  1  0      
 11 12  1  0      
  8 12  1  0      
 12 13  1  0      
 13 14  1  0      
 14 15  1  0      
 15 16  1  0      
 11 16  1  0      
 16 17  1  0      
 17 18  1  0      
 18 19  1  0      
 19 20  1  0      
 15 20  1  0      
 20 21  1  0      
 21 22  1  0      
 22 23  1  0      
 23 24  1  0      
 19 24  1  0      
 24 25  1  0      
 24 26  1  0      
 23 27  1  0      
 27 28  1  0      
 28 29  1  0      
 29 30  1  0      
 30 31  1  0      
 31 32  1  0      
 32 33  1  0      
 28 33  1  0      
 32 34  1  0      
 34 35  1  0      
 31 36  1  0      
 30 37  1  0      
 29 38  1  0      
 20 39  1  0      
 16 40  1  0      
 13 41  1  0      
 11 42  1  0      
  6 43  1  0      
 43 44  1  0      
 44 45  1  0      
 45 46  1  0      
 46 47  1  0      
 47 48  1  0      
 48 49  1  0      
 44 49  1  0      
 48 50  1  0      
 50 51  1  0      
 51 52  1  0      
 52 53  1  0      
 53 54  1  0      
 54 55  1  0      
 55 56  1  0      
 56 57  1  0      
 52 57  1  0      
 56 58  1  0      
 58 59  1  0      
 55 60  1  0      
 54 61  1  0      
 53 62  1  0      
 47 63  1  0      
 46 64  1  0      
 45 65  1  0      
  2 66  1  0      
M  END
>  <Bioactivity>
Gypenoside XVII confers protection against A¦Â25-35-induced neurotoxicity through estrogen receptor-dependent activation of PI3K/Akt pathways, inactivation of GSK-3¦Â and activation of Nrf2/ARE/HO-1 p
athways.

>  <CAS>
80321-69-3

>  <Col>
4

>  <Formula>
C48H82O18

>  <ID>
T3385

>  <Index>
683

>  <MOLENAME>
Gypenoside XVII

>  <MolWt>
947.16

>  <Pathways>
PI3K/Akt pathways

>  <Plate>
PLATE 009

>  <QR code>
1151480847

>  <Receptor>
GSK-3¦Â

>  <Reference>
1. Shin KC, et al. Biotechnol Lett. 2014 Jun;36(6):1287-93.

>  <Row>
E

>  <SMILES>
CC(=CCCC(C)(C1CCC2(C1C(CC3C2(CCC4C3(CCC(C4(C)C)OC5C(C(C(C(O5)CO)O)O)O)C)C)O)C)OC6C(C(C(C(O6)COC7C(C(C(C(O7)CO)O)O)O)O)O)O)C

>  <Target>
GSK inhibitor

>  <Weight>
9.8mg

$$$$
Lab-1.sdf
  ChemDraw05232018482D

 11 12  0  0  0  0  0  0  0  0999 V2000
    1.7064    0.0000    0.0000 O   0  0  0  0  0  0  0  0  0  0  0  0
    0.9920    0.0000    0.0000 C   0  0  0  0  0  0  0  0  0  0  0  0
    0.2775    0.0000    0.0000 N   0  0  0  0  0  0  0  0  0  0  0  0
   -0.4369    0.0000    0.0000 C   0  0  0  0  0  0  0  0  0  0  0  0
   -0.4369    0.0000    0.0000 C   0  0  0  0  0  0  0  0  0  0  0  0
   -1.2216    0.0000    0.0000 N   0  0  0  0  0  0  0  0  0  0  0  0
   -1.7064    0.0000    0.0000 C   0  0  0  0  0  0  0  0  0  0  0  0
   -1.2216    0.0000    0.0000 N   0  0  0  0  0  0  0  0  0  0  0  0
    0.2775    0.0000    0.0000 C   0  0  0  0  0  0  0  0  0  0  0  0
    0.2775    0.0000    0.0000 O   0  0  0  0  0  0  0  0  0  0  0  0
    0.9920    0.0000    0.0000 N   0  0  0  0  0  0  0  0  0  0  0  0
  1  2  2  0      
  2  3  1  0      
  3  4  1  0      
  4  5  2  0      
  5  6  1  0      
  6  7  1  0      
  7  8  2  0      
  4  8  1  0      
  5  9  1  0      
  9 10  2  0      
  9 11  1  0      
  2 11  1  0      
M  END
>  <Bioactivity>
A purine base found in most body tissues and fluids, certain plants, and some urinary calculi. It is an intermediate in the degradation of adenosine monophosphate to uric acid, being formed by oxidati
on of hypoxanthine. The methylated xanthine compounds caffeine, theobromine, and theophylline and their derivatives are used in medicine for their bronchodilator effects. (Dorland, 28th ed)

>  <CAS>
69-89-6

>  <Col>
5

>  <Formula>
C5H4N4O2

>  <ID>
T0665

>  <Index>
684

>  <MOLENAME>
2,6-Dihydroxypurine

>  <MolWt>
152.11

>  <Pathways>
Enzyme

>  <Plate>
PLATE 009

>  <QR code>
1151480846

>  <Receptor>
PNP2;  XPT

>  <Reference>
1. Overington JP, et al. Nat Rev Drug Discov. 2006 Dec;5(12):993-6.

>  <Row>
E

>  <SMILES>
O=C1NC2=C(NC=N2)C(=O)N1

>  <Target>
Phosphorylase

>  <Weight>
10.2mg

$$$$
Lab-1.sdf
  ChemDraw05232018482D

 49 51  0  0  0  0  0  0  0  0999 V2000
   -0.3249    0.0000    0.0000 C   0  0  0  0  0  0  0  0  0  0  0  0
   -0.9923    0.0000    0.0000 C   0  0  0  0  0  0  0  0  0  0  0  0
   -0.9061    0.0000    0.0000 C   0  0  0  0  0  0  0  0  0  0  0  0
   -0.1524    0.0000    0.0000 C   0  0  0  0  0  0  0  0  0  0  0  0
    0.5149    0.0000    0.0000 C   0  0  0  0  0  0  0  0  0  0  0  0
    0.4287    0.0000    0.0000 C   0  0  0  0  0  0  0  0  0  0  0  0
    1.0961    0.0000    0.0000 C   0  0  0  0  0  0  0  0  0  0  0  0
    1.0099    0.0000    0.0000 C   0  0  0  0  0  0  0  0  0  0  0  0
    1.6773    0.0000    0.0000 C   0  0  0  0  0  0  0  0  0  0  0  0
    1.5911    0.0000    0.0000 C   0  0  0  0  0  0  0  0  0  0  0  0
    0.8374    0.0000    0.0000 C   0  0  0  0  0  0  0  0  0  0  0  0
    0.1700    0.0000    0.0000 C   0  0  0  0  0  0  0  0  0  0  0  0
   -0.5836    0.0000    0.0000 C   0  0  0  0  0  0  0  0  0  0  0  0
   -1.2510    0.0000    0.0000 C   0  0  0  0  0  0  0  0  0  0  0  0
   -1.1648    0.0000    0.0000 C   0  0  0  0  0  0  0  0  0  0  0  0
   -1.8322    0.0000    0.0000 C   0  0  0  0  0  0  0  0  0  0  0  0
   -2.5859    0.0000    0.0000 O   0  0  0  0  0  0  0  0  0  0  0  0
   -1.7460    0.0000    0.0000 O   0  0  0  0  0  0  0  0  0  0  0  0
   -2.0047    0.0000    0.0000 O   0  0  0  0  0  0  0  0  0  0  0  0
   -0.6698    0.0000    0.0000 O   0  0  0  0  0  0  0  0  0  0  0  0
   -1.4235    0.0000    0.0000 C   0  0  0  0  0  0  0  0  0  0  0  0
   -0.3820    0.0000    0.0000 O   0  0  0  0  0  0  0  0  0  0  0  0
   -0.3820    0.0000    0.0000 C   0  0  0  0  0  0  0  0  0  0  0  0
   -1.0964    0.0000    0.0000 C   0  0  0  0  0  0  0  0  0  0  0  0
   -1.0964    0.0000    0.0000 C   0  0  0  0  0  0  0  0  0  0  0  0
   -0.3820    0.0000    0.0000 C   0  0  0  0  0  0  0  0  0  0  0  0
    0.3324    0.0000    0.0000 C   0  0  0  0  0  0  0  0  0  0  0  0
    0.3324    0.0000    0.0000 O   0  0  0  0  0  0  0  0  0  0  0  0
    1.0469    0.0000    0.0000 C   0  0  0  0  0  0  0  0  0  0  0  0
   -0.3820    0.0000    0.0000 O   0  0  0  0  0  0  0  0  0  0  0  0
    0.3324    0.0000    0.0000 C   0  0  0  0  0  0  0  0  0  0  0  0
    1.0469    0.0000    0.0000 C   0  0  0  0  0  0  0  0  0  0  0  0
    1.7614    0.0000    0.0000 C   0  0  0  0  0  0  0  0  0  0  0  0
    1.7614    0.0000    0.0000 C   0  0  0  0  0  0  0  0  0  0  0  0
    1.0469    0.0000    0.0000 C   0  0  0  0  0  0  0  0  0  0  0  0
    0.3324    0.0000    0.0000 O   0  0  0  0  0  0  0  0  0  0  0  0
    1.0469    0.0000    0.0000 C   0  0  0  0  0  0  0  0  0  0  0  0
    2.4758    0.0000    0.0000 O   0  0  0  0  0  0  0  0  0  0  0  0
    2.1985    0.0000    0.0000 C   0  0  0  0  0  0  0  0  0  0  0  0
    2.5859    0.0000    0.0000 O   0  0  0  0  0  0  0  0  0  0  0  0
   -1.8109    0.0000    0.0000 N   0  0  0  0  0  0  0  0  0  0  0  0
   -1.8109    0.0000    0.0000 C   0  0  0  0  0  0  0  0  0  0  0  0
   -2.5254    0.0000    0.0000 C   0  0  0  0  0  0  0  0  0  0  0  0
   -1.8109    0.0000    0.0000 O   0  0  0  0  0  0  0  0  0  0  0  0
    0.7512    0.0000    0.0000 C   0  0  0  0  0  0  0  0  0  0  0  0
    1.4186    0.0000    0.0000 C   0  0  0  0  0  0  0  0  0  0  0  0
    2.1723    0.0000    0.0000 O   0  0  0  0  0  0  0  0  0  0  0  0
    2.4310    0.0000    0.0000 C   0  0  0  0  0  0  0  0  0  0  0  0
    0.2562    0.0000    0.0000 O   0  0  0  0  0  0  0  0  0  0  0  0
  1  2  1  0      
  2  3  1  0      
  4  3  1  4      
  4  5  2  0      
  6  5  1  4      
  6  7  2  0      
  7  8  1  0      
  8  9  1  0      
  9 10  1  0      
 10 11  1  0      
 11 12  1  0      
 12 13  1  0      
 13 14  1  0      
 14 15  1  0      
 15 16  1  0      
 16 17  2  0      
 16 18  1  0      
  2 18  1  0      
 14 19  1  0      
 13 20  1  0      
 20 21  1  0      
 12 22  1  0      
 22 23  1  0      
 23 24  1  0      
 24 25  1  0      
 25 26  1  0      
 26 27  1  0      
 27 28  1  0      
 23 28  1  0      
 27 29  1  0      
 26 30  1  0      
 30 31  1  0      
 31 32  1  0      
 32 33  1  0      
 33 34  1  0      
 34 35  1  0      
 35 36  1  0      
 31 36  1  0      
 35 37  1  0      
 34 38  1  0      
 33 39  1  0      
 33 40  1  0      
 25 41  1  0      
 41 42  1  0      
 41 43  1  0      
 24 44  1  0      
 11 45  1  0      
 45 46  1  0      
 46 47  2  0      
  9 48  1  0      
  8 49  1  0      
M  END
>  <Bioactivity>
Kitasamycin?(INN) is a macrolide antibiotic. It is produced by?Streptomyces kitasatoensis.

>  <CAS>
1392-21-8

>  <Col>
6

>  <Formula>
C35H59NO13

>  <ID>
T3607

>  <Index>
685

>  <MOLENAME>
Kitasamycin

>  <MolWt>
701.85

>  <Pathways>
Immunology/Inflammation

>  <Plate>
PLATE 009

>  <QR code>
1151480845

>  <Receptor>
Others

>  <Reference>
1. Zhang C, et al. Anaerobe. 2016 Dec;42:188-196.

>  <Row>
E

>  <SMILES>
CC1CC=CC=CC(C(CC(C(C(C(CC(=O)O1)O)OC)OC2C(C(C(C(O2)C)OC3CC(C(C(O3)C)O)(C)O)N(C)C)O)CC=O)C)O

>  <Target>
Antibiotics

>  <Weight>
10.4mg

$$$$
Lab-1.sdf
  ChemDraw05232018482D

 22 24  0  0  0  0  0  0  0  0999 V2000
    3.6031    0.0000    0.0000 C   0  0  0  0  0  0  0  0  0  0  0  0
    2.7781    0.0000    0.0000 C   0  0  0  0  0  0  0  0  0  0  0  0
    2.7781    0.0000    0.0000 C   0  0  0  0  0  0  0  0  0  0  0  0
    1.9531    0.0000    0.0000 C   0  0  0  0  0  0  0  0  0  0  0  0
    1.4682    0.0000    0.0000 C   0  0  0  0  0  0  0  0  0  0  0  0
    0.6836    0.0000    0.0000 C   0  0  0  0  0  0  0  0  0  0  0  0
    0.6836    0.0000    0.0000 C   0  0  0  0  0  0  0  0  0  0  0  0
    1.4682    0.0000    0.0000 O   0  0  0  0  0  0  0  0  0  0  0  0
   -0.0309    0.0000    0.0000 C   0  0  0  0  0  0  0  0  0  0  0  0
   -0.7454    0.0000    0.0000 C   0  0  0  0  0  0  0  0  0  0  0  0
   -0.7454    0.0000    0.0000 C   0  0  0  0  0  0  0  0  0  0  0  0
   -0.0309    0.0000    0.0000 C   0  0  0  0  0  0  0  0  0  0  0  0
   -0.0309    0.0000    0.0000 O   0  0  0  0  0  0  0  0  0  0  0  0
    0.6836    0.0000    0.0000 C   0  0  0  0  0  0  0  0  0  0  0  0
   -1.4597    0.0000    0.0000 C   0  0  0  0  0  0  0  0  0  0  0  0
   -1.4597    0.0000    0.0000 O   0  0  0  0  0  0  0  0  0  0  0  0
   -2.1743    0.0000    0.0000 C   0  0  0  0  0  0  0  0  0  0  0  0
   -2.1743    0.0000    0.0000 C   0  0  0  0  0  0  0  0  0  0  0  0
   -1.4597    0.0000    0.0000 O   0  0  0  0  0  0  0  0  0  0  0  0
   -2.8887    0.0000    0.0000 C   0  0  0  0  0  0  0  0  0  0  0  0
   -3.6031    0.0000    0.0000 O   0  0  0  0  0  0  0  0  0  0  0  0
    2.7781    0.0000    0.0000 O   0  0  0  0  0  0  0  0  0  0  0  0
  1  2  1  0      
  2  3  1  0      
  2  4  1  0      
  4  5  1  0      
  5  6  1  0      
  6  7  2  0      
  7  8  1  0      
  4  8  1  0      
  7  9  1  0      
  9 10  2  0      
 10 11  1  0      
 11 12  2  0      
  6 12  1  0      
 12 13  1  0      
 13 14  1  0      
 11 15  1  0      
 15 16  2  0      
 15 17  1  0      
 17 18  2  0      
 18 19  1  0      
 10 19  1  0      
 18 20  1  0      
 20 21  1  0      
  2 22  1  0      
M  END
>  <Bioactivity>
Cimifugin inhibits nitric oxide production induced by lipopolysaccharide in macrophage cell line RAW 264.7 and for 1,1-diphenyl-2-picrylhydrazyl free-radical scavenging activity in cell-free bioassay 
system.

>  <CAS>
37921-38-3

>  <Col>
7

>  <Formula>
C16H18O6

>  <ID>
T3383

>  <Index>
686

>  <MOLENAME>
Cimifugin

>  <MolWt>
306.3

>  <Pathways>
Others

>  <Plate>
PLATE 009

>  <QR code>
1151480844

>  <Receptor>
Others

>  <Reference>
1. Li Y, et al. Biomed Chromatogr. 2012 Oct;26(10):1234-40.

>  <Row>
E

>  <SMILES>
CC(C)(C1CC2=C(O1)C=C3C(=C2OC)C(=O)C=C(O3)CO)O

>  <Target>
Others

>  <Weight>
10.1mg

$$$$
Lab-1.sdf
  ChemDraw05232018482D

 25 26  0  0  0  0  0  0  0  0999 V2000
    1.3184    0.0000    0.0000 C   0  0  0  0  0  0  0  0  0  0  0  0
    2.1434    0.0000    0.0000 C   0  0  0  0  0  0  0  0  0  0  0  0
    2.9684    0.0000    0.0000 C   0  0  0  0  0  0  0  0  0  0  0  0
    2.1434    0.0000    0.0000 C   0  0  0  0  0  0  0  0  0  0  0  0
    2.8579    0.0000    0.0000 C   0  0  0  0  0  0  0  0  0  0  0  0
    2.1434    0.0000    0.0000 C   0  0  0  0  0  0  0  0  0  0  0  0
    2.8579    0.0000    0.0000 C   0  0  0  0  0  0  0  0  0  0  0  0
    2.8579    0.0000    0.0000 C   0  0  0  0  0  0  0  0  0  0  0  0
    2.1434    0.0000    0.0000 C   0  0  0  0  0  0  0  0  0  0  0  0
    1.4289    0.0000    0.0000 C   0  0  0  0  0  0  0  0  0  0  0  0
    1.4289    0.0000    0.0000 C   0  0  0  0  0  0  0  0  0  0  0  0
    0.7144    0.0000    0.0000 C   0  0  0  0  0  0  0  0  0  0  0  0
    0.0001    0.0000    0.0000 C   0  0  0  0  0  0  0  0  0  0  0  0
   -0.7145    0.0000    0.0000 C   0  0  0  0  0  0  0  0  0  0  0  0
   -0.7145    0.0000    0.0000 O   0  0  0  0  0  0  0  0  0  0  0  0
   -1.4289    0.0000    0.0000 C   0  0  0  0  0  0  0  0  0  0  0  0
   -2.1434    0.0000    0.0000 C   0  0  0  0  0  0  0  0  0  0  0  0
   -2.8578    0.0000    0.0000 C   0  0  0  0  0  0  0  0  0  0  0  0
   -2.8578    0.0000    0.0000 C   0  0  0  0  0  0  0  0  0  0  0  0
   -2.1434    0.0000    0.0000 C   0  0  0  0  0  0  0  0  0  0  0  0
   -1.4289    0.0000    0.0000 C   0  0  0  0  0  0  0  0  0  0  0  0
   -3.5723    0.0000    0.0000 O   0  0  0  0  0  0  0  0  0  0  0  0
    2.1434    0.0000    0.0000 O   0  0  0  0  0  0  0  0  0  0  0  0
    1.4289    0.0000    0.0000 C   0  0  0  0  0  0  0  0  0  0  0  0
    3.5723    0.0000    0.0000 O   0  0  0  0  0  0  0  0  0  0  0  0
  1  2  1  0      
  2  3  1  0      
  2  4  1  0      
  4  5  2  0      
  2  6  1  0      
  6  7  2  0      
  7  8  1  0      
  8  9  2  0      
  9 10  1  0      
 10 11  2  0      
  6 11  1  0      
 12 10  1  4      
 12 13  2  0      
 13 14  1  0      
 14 15  2  0      
 14 16  1  0      
 16 17  2  0      
 17 18  1  0      
 18 19  2  0      
 19 20  1  0      
 20 21  2  0      
 16 21  1  0      
 19 22  1  0      
  9 23  1  0      
 23 24  1  0      
  7 25  1  0      
M  END
>  <Bioactivity>
Licochalcone A exhibits potent antimalarial activity via and might be developed into a new antimalarial drug. Licochalcone A had anti-tumor activity in all cell lines tested and enhanced the effect o
f paclitaxel and vinblastine chemotherapy. Licochalcone A induced apoptosis in MCF-7 and HL-60 cell lines, as demonstrated by cleavage of PARP, the substrate of ICE-like proteases. Licochalcone A exhi
bits a strong antileishmanial activity ,that appropriate substituted chalcones might be a new class of antileishmanial drugs.

>  <CAS>
58749-22-7

>  <Col>
8

>  <Formula>
C21H22O4

>  <ID>
T3600

>  <Index>
687

>  <MOLENAME>
Licochalcone A

>  <MolWt>
338.4

>  <Pathways>
Others

>  <Plate>
PLATE 009

>  <QR code>
1151480843

>  <Receptor>
caspase-3 

>  <Reference>
1. Kim SH, et al. Exp Biol Med (Maywood). 2015 Jan;240(1):26-33.

>  <Row>
E

>  <SMILES>
CC(C)(C=C)C1=C(C=C(C(=C1)C=CC(=O)C2=CC=C(C=C2)O)OC)O

>  <Target>
caspase

>  <Weight>
10.3mg

$$$$
Lab-1.sdf
  ChemDraw05232018482D

 24 27  0  0  0  0  0  0  0  0999 V2000
    4.0284    0.0000    0.0000 C   0  0  0  0  0  0  0  0  0  0  0  0
    3.3965    0.0000    0.0000 C   0  0  0  0  0  0  0  0  0  0  0  0
    2.9840    0.0000    0.0000 C   0  0  0  0  0  0  0  0  0  0  0  0
    2.1590    0.0000    0.0000 C   0  0  0  0  0  0  0  0  0  0  0  0
    1.7465    0.0000    0.0000 C   0  0  0  0  0  0  0  0  0  0  0  0
    2.1590    0.0000    0.0000 C   0  0  0  0  0  0  0  0  0  0  0  0
    2.9840    0.0000    0.0000 O   0  0  0  0  0  0  0  0  0  0  0  0
    1.7465    0.0000    0.0000 C   0  0  0  0  0  0  0  0  0  0  0  0
    0.9215    0.0000    0.0000 C   0  0  0  0  0  0  0  0  0  0  0  0
    0.5090    0.0000    0.0000 C   0  0  0  0  0  0  0  0  0  0  0  0
    0.9215    0.0000    0.0000 C   0  0  0  0  0  0  0  0  0  0  0  0
    0.5090    0.0000    0.0000 O   0  0  0  0  0  0  0  0  0  0  0  0
   -0.3160    0.0000    0.0000 C   0  0  0  0  0  0  0  0  0  0  0  0
   -0.7285    0.0000    0.0000 C   0  0  0  0  0  0  0  0  0  0  0  0
   -0.3160    0.0000    0.0000 C   0  0  0  0  0  0  0  0  0  0  0  0
   -1.5535    0.0000    0.0000 C   0  0  0  0  0  0  0  0  0  0  0  0
   -1.9660    0.0000    0.0000 C   0  0  0  0  0  0  0  0  0  0  0  0
   -2.7910    0.0000    0.0000 C   0  0  0  0  0  0  0  0  0  0  0  0
   -3.2035    0.0000    0.0000 C   0  0  0  0  0  0  0  0  0  0  0  0
   -2.7910    0.0000    0.0000 C   0  0  0  0  0  0  0  0  0  0  0  0
   -1.9660    0.0000    0.0000 C   0  0  0  0  0  0  0  0  0  0  0  0
   -4.0284    0.0000    0.0000 O   0  0  0  0  0  0  0  0  0  0  0  0
   -1.5535    0.0000    0.0000 O   0  0  0  0  0  0  0  0  0  0  0  0
    4.0284    0.0000    0.0000 C   0  0  0  0  0  0  0  0  0  0  0  0
  1  2  1  0      
  2  3  1  0      
  3  4  2  0      
  4  5  1  0      
  5  6  2  0      
  6  7  1  0      
  2  7  1  0      
  6  8  1  0      
  8  9  2  0      
  9 10  1  0      
 10 11  2  0      
  5 11  1  0      
 11 12  1  0      
 12 13  1  0      
 13 14  1  0      
 14 15  1  0      
 10 15  1  0      
 14 16  1  0      
 16 17  2  0      
 17 18  1  0      
 18 19  2  0      
 19 20  1  0      
 20 21  2  0      
 16 21  1  0      
 19 22  1  0      
 17 23  1  0      
  2 24  1  0      
M  END
>  <Bioactivity>
Glabridin may serve as an anti-inflammatory agent in diabetes-related vascular dysfunction,through regulating the synthesis and activity of iNOS under high-glucose levels; may possess a therapeutic ef
fect on metabolic disorders( such as diabetes and hyperglycemia), by modulating glucose metabolism through AMPK in skeletal muscle cells. Glabridin may have potential as a chemopreventive agent agains
t liver Y metastasis, by inhibiting the invasion of human HCC cells.

>  <CAS>
59870-68-7

>  <Col>
9

>  <Formula>
C20H20O4

>  <ID>
T3403

>  <Index>
688

>  <MOLENAME>
Glabridin

>  <MolWt>
324.37

>  <Pathways>
Tyrosine Kinase/Adaptors

>  <Plate>
PLATE 009

>  <QR code>
1151480842

>  <Receptor>
T1 and T3 tyrosinase

>  <Reference>
1. Yokota Tm , et al. Pigment Cell Res. 1998 Dec;11(6):355-61.

>  <Row>
E

>  <SMILES>
CC1(C=CC2=C(O1)C=CC3=C2OCC(C3)C4=C(C=C(C=C4)O)O)C

>  <Target>
tyrosinase inhibitor

>  <Weight>
10.3mg

$$$$
Lab-1.sdf
  ChemDraw05232018482D

 33 36  0  0  0  0  0  0  0  0999 V2000
   -2.5006    0.0000    0.0000 C   0  0  0  0  0  0  0  0  0  0  0  0
   -2.5006    0.0000    0.0000 O   0  0  0  0  0  0  0  0  0  0  0  0
   -1.7862    0.0000    0.0000 C   0  0  0  0  0  0  0  0  0  0  0  0
   -1.7862    0.0000    0.0000 C   0  0  0  0  0  0  0  0  0  0  0  0
   -1.0717    0.0000    0.0000 C   0  0  0  0  0  0  0  0  0  0  0  0
   -0.3572    0.0000    0.0000 C   0  0  0  0  0  0  0  0  0  0  0  0
   -0.3572    0.0000    0.0000 C   0  0  0  0  0  0  0  0  0  0  0  0
   -1.0717    0.0000    0.0000 C   0  0  0  0  0  0  0  0  0  0  0  0
   -1.0717    0.0000    0.0000 O   0  0  0  0  0  0  0  0  0  0  0  0
    0.3572    0.0000    0.0000 C   0  0  0  0  0  0  0  0  0  0  0  0
    0.3572    0.0000    0.0000 O   0  0  0  0  0  0  0  0  0  0  0  0
    1.0717    0.0000    0.0000 C   0  0  0  0  0  0  0  0  0  0  0  0
    1.0717    0.0000    0.0000 C   0  0  0  0  0  0  0  0  0  0  0  0
    0.3572    0.0000    0.0000 O   0  0  0  0  0  0  0  0  0  0  0  0
    1.7862    0.0000    0.0000 C   0  0  0  0  0  0  0  0  0  0  0  0
    1.7862    0.0000    0.0000 C   0  0  0  0  0  0  0  0  0  0  0  0
    2.5007    0.0000    0.0000 C   0  0  0  0  0  0  0  0  0  0  0  0
    3.2151    0.0000    0.0000 C   0  0  0  0  0  0  0  0  0  0  0  0
    3.2151    0.0000    0.0000 C   0  0  0  0  0  0  0  0  0  0  0  0
    2.5007    0.0000    0.0000 C   0  0  0  0  0  0  0  0  0  0  0  0
    3.9296    0.0000    0.0000 O   0  0  0  0  0  0  0  0  0  0  0  0
   -2.5006    0.0000    0.0000 O   0  0  0  0  0  0  0  0  0  0  0  0
   -2.5006    0.0000    0.0000 C   0  0  0  0  0  0  0  0  0  0  0  0
   -1.7862    0.0000    0.0000 C   0  0  0  0  0  0  0  0  0  0  0  0
   -1.7862    0.0000    0.0000 C   0  0  0  0  0  0  0  0  0  0  0  0
   -2.5006    0.0000    0.0000 C   0  0  0  0  0  0  0  0  0  0  0  0
   -3.2151    0.0000    0.0000 C   0  0  0  0  0  0  0  0  0  0  0  0
   -3.2151    0.0000    0.0000 O   0  0  0  0  0  0  0  0  0  0  0  0
   -3.9296    0.0000    0.0000 C   0  0  0  0  0  0  0  0  0  0  0  0
   -3.9296    0.0000    0.0000 O   0  0  0  0  0  0  0  0  0  0  0  0
   -2.5006    0.0000    0.0000 O   0  0  0  0  0  0  0  0  0  0  0  0
   -1.0717    0.0000    0.0000 O   0  0  0  0  0  0  0  0  0  0  0  0
   -1.0717    0.0000    0.0000 O   0  0  0  0  0  0  0  0  0  0  0  0
  1  2  1  0      
  2  3  1  0      
  3  4  2  0      
  4  5  1  0      
  5  6  2  0      
  6  7  1  0      
  7  8  2  0      
  3  8  1  0      
  8  9  1  0      
  7 10  1  0      
 10 11  2  0      
 10 12  1  0      
 12 13  2  0      
 13 14  1  0      
  6 14  1  0      
 12 15  1  0      
 15 16  2  0      
 16 17  1  0      
 17 18  2  0      
 18 19  1  0      
 19 20  2  0      
 15 20  1  0      
 18 21  1  0      
  4 22  1  0      
 22 23  1  0      
 23 24  1  0      
 24 25  1  0      
 25 26  1  0      
 26 27  1  0      
 27 28  1  0      
 23 28  1  0      
 27 29  1  0      
 29 30  1  0      
 26 31  1  0      
 25 32  1  0      
 24 33  1  0      
M  END
>  <Bioactivity>
Tectoridin possesses a estrogenic and thyroid hormone-like agent by activating estrogen and thyroid hormone receptors. Tectoridin has anti-oxidant, anti-inflammatory and hypoglycemic activities; Tecto
ridin and its five metabolites inhibits the activities of lens aldose reductase in rat (IC??: 1.4-15.5 ¦ÌM).

>  <CAS>
611-40-5

>  <Col>
10

>  <Formula>
C22H22O11

>  <ID>
T3665

>  <Index>
689

>  <MOLENAME>
Tectoridin?

>  <MolWt>
462.4

>  <Pathways>
Enzyme

>  <Plate>
PLATE 009

>  <QR code>
1151480841

>  <Receptor>
aldose reductase

>  <Reference>
1. Li Y, et al. Luminescence. 2016 Feb;31(1):38-46.

>  <Row>
E

>  <SMILES>
COC1=C(C=C2C(=C1O)C(=O)C(=CO2)C3=CC=C(C=C3)O)OC4C(C(C(C(O4)CO)O)O)O

>  <Target>
Aldose reductase inhibitor

>  <Weight>
10.2mg

$$$$
Lab-1.sdf
  ChemDraw05232018482D

 33 38  0  0  0  0  0  0  0  0999 V2000
    2.4391    0.0000    0.0000 C   0  0  0  0  0  0  0  0  0  0  0  0
    1.8646    0.0000    0.0000 C   0  0  0  0  0  0  0  0  0  0  0  0
    1.0901    0.0000    0.0000 C   0  0  0  0  0  0  0  0  0  0  0  0
    0.5426    0.0000    0.0000 C   0  0  0  0  0  0  0  0  0  0  0  0
   -0.2656    0.0000    0.0000 C   0  0  0  0  0  0  0  0  0  0  0  0
   -0.8131    0.0000    0.0000 O   0  0  0  0  0  0  0  0  0  0  0  0
   -0.5264    0.0000    0.0000 C   0  0  0  0  0  0  0  0  0  0  0  0
    0.0211    0.0000    0.0000 C   0  0  0  0  0  0  0  0  0  0  0  0
    0.8293    0.0000    0.0000 C   0  0  0  0  0  0  0  0  0  0  0  0
    1.2787    0.0000    0.0000 C   0  0  0  0  0  0  0  0  0  0  0  0
    2.0998    0.0000    0.0000 C   0  0  0  0  0  0  0  0  0  0  0  0
    2.6743    0.0000    0.0000 C   0  0  0  0  0  0  0  0  0  0  0  0
    3.4570    0.0000    0.0000 O   0  0  0  0  0  0  0  0  0  0  0  0
    2.5697    0.0000    0.0000 O   0  0  0  0  0  0  0  0  0  0  0  0
    0.5108    0.0000    0.0000 C   0  0  0  0  0  0  0  0  0  0  0  0
   -0.2397    0.0000    0.0000 C   0  0  0  0  0  0  0  0  0  0  0  0
   -1.0479    0.0000    0.0000 C   0  0  0  0  0  0  0  0  0  0  0  0
   -1.5954    0.0000    0.0000 C   0  0  0  0  0  0  0  0  0  0  0  0
   -1.3346    0.0000    0.0000 C   0  0  0  0  0  0  0  0  0  0  0  0
   -1.8821    0.0000    0.0000 C   0  0  0  0  0  0  0  0  0  0  0  0
   -1.0738    0.0000    0.0000 O   0  0  0  0  0  0  0  0  0  0  0  0
   -2.6903    0.0000    0.0000 C   0  0  0  0  0  0  0  0  0  0  0  0
   -3.2377    0.0000    0.0000 O   0  0  0  0  0  0  0  0  0  0  0  0
   -2.9511    0.0000    0.0000 O   0  0  0  0  0  0  0  0  0  0  0  0
   -2.4036    0.0000    0.0000 C   0  0  0  0  0  0  0  0  0  0  0  0
   -2.6644    0.0000    0.0000 C   0  0  0  0  0  0  0  0  0  0  0  0
   -2.1844    0.0000    0.0000 C   0  0  0  0  0  0  0  0  0  0  0  0
   -2.6743    0.0000    0.0000 O   0  0  0  0  0  0  0  0  0  0  0  0
   -3.4570    0.0000    0.0000 C   0  0  0  0  0  0  0  0  0  0  0  0
   -3.4509    0.0000    0.0000 C   0  0  0  0  0  0  0  0  0  0  0  0
   -1.8561    0.0000    0.0000 C   0  0  0  0  0  0  0  0  0  0  0  0
   -0.6065    0.0000    0.0000 C   0  0  0  0  0  0  0  0  0  0  0  0
    1.4152    0.0000    0.0000 C   0  0  0  0  0  0  0  0  0  0  0  0
  1  2  1  0      
  2  3  1  0      
  3  4  1  0      
  4  5  1  0      
  5  6  2  0      
  5  7  1  0      
  7  8  1  0      
  8  9  1  0      
  3  9  1  0      
  9 10  1  0      
 10 11  2  0      
 11 12  1  0      
 12 13  2  0      
 12 14  1  0      
  2 14  1  0      
  9 15  1  0      
  8 16  1  0      
 16 17  1  0      
 17 18  1  0      
 18 19  1  0      
  7 19  1  0      
 19 20  1  0      
 20 21  1  0      
 19 21  1  0      
 20 22  1  0      
 22 23  2  0      
 22 24  1  0      
 24 25  1  0      
 18 25  1  0      
 25 26  1  0      
 26 27  2  0      
 27 28  1  0      
 28 29  1  0      
 29 30  2  0      
 26 30  1  0      
 18 31  1  0      
  7 32  1  0      
  2 33  1  0      
M  END
>  <Bioactivity>
Obacunone has cytotoxicity in androgen-dependent human prostate Y cells. Obacunone exerts an antivirulence effect on S. Typhimurium and may serve as a lead compound for development of antivirulence s
trategies for S. Typhimurium. Obacunone may have the potential to prevent estrogen-responsive breast Y through inhibition of the aromatase enzyme and inflammatory pathways, as well as activation of a
poptosis.

>  <CAS>
751-03-1

>  <Col>
11

>  <Formula>
C26H30O7

>  <ID>
T3390

>  <Index>
690

>  <MOLENAME>
Obacunone

>  <MolWt>
454.5

>  <Pathways>
MAPK Signaling;

>  <Plate>
PLATE 009

>  <QR code>
1151480840

>  <Receptor>
p38 MAPK

>  <Reference>
1. Murthy KN, et al.Toxicology. 2015 Mar 2;329:88-97.

>  <Row>
E

>  <SMILES>
CC1(C2CC(=O)C3(C(C2(C=CC(=O)O1)C)CCC4(C35C(O5)C(=O)OC4C6=COC=C6)C)C)C

>  <Target>
p38 MAPK? inhibitor

>  <Weight>
10.4mg

$$$$
Lab-1.sdf
  ChemDraw05232018482D

 44 47  0  0  0  0  0  0  0  0999 V2000
    1.4290    0.0000    0.0000 C   0  0  0  0  0  0  0  0  0  0  0  0
    1.4290    0.0000    0.0000 C   0  0  0  0  0  0  0  0  0  0  0  0
    2.1434    0.0000    0.0000 C   0  0  0  0  0  0  0  0  0  0  0  0
    2.1434    0.0000    0.0000 C   0  0  0  0  0  0  0  0  0  0  0  0
    1.4290    0.0000    0.0000 C   0  0  0  0  0  0  0  0  0  0  0  0
    0.7145    0.0000    0.0000 C   0  0  0  0  0  0  0  0  0  0  0  0
    0.7145    0.0000    0.0000 O   0  0  0  0  0  0  0  0  0  0  0  0
   -0.0000    0.0000    0.0000 O   0  0  0  0  0  0  0  0  0  0  0  0
   -0.0000    0.0000    0.0000 C   0  0  0  0  0  0  0  0  0  0  0  0
   -0.7145    0.0000    0.0000 C   0  0  0  0  0  0  0  0  0  0  0  0
   -0.7145    0.0000    0.0000 C   0  0  0  0  0  0  0  0  0  0  0  0
   -1.4289    0.0000    0.0000 C   0  0  0  0  0  0  0  0  0  0  0  0
   -2.1434    0.0000    0.0000 C   0  0  0  0  0  0  0  0  0  0  0  0
   -2.1434    0.0000    0.0000 C   0  0  0  0  0  0  0  0  0  0  0  0
   -1.4289    0.0000    0.0000 O   0  0  0  0  0  0  0  0  0  0  0  0
   -2.8579    0.0000    0.0000 O   0  0  0  0  0  0  0  0  0  0  0  0
   -2.8579    0.0000    0.0000 C   0  0  0  0  0  0  0  0  0  0  0  0
   -3.5723    0.0000    0.0000 C   0  0  0  0  0  0  0  0  0  0  0  0
   -3.5723    0.0000    0.0000 C   0  0  0  0  0  0  0  0  0  0  0  0
   -4.2868    0.0000    0.0000 C   0  0  0  0  0  0  0  0  0  0  0  0
   -4.2868    0.0000    0.0000 C   0  0  0  0  0  0  0  0  0  0  0  0
   -3.5723    0.0000    0.0000 C   0  0  0  0  0  0  0  0  0  0  0  0
   -2.8579    0.0000    0.0000 C   0  0  0  0  0  0  0  0  0  0  0  0
   -2.8579    0.0000    0.0000 C   0  0  0  0  0  0  0  0  0  0  0  0
   -3.5723    0.0000    0.0000 O   0  0  0  0  0  0  0  0  0  0  0  0
   -5.0013    0.0000    0.0000 O   0  0  0  0  0  0  0  0  0  0  0  0
   -2.8579    0.0000    0.0000 O   0  0  0  0  0  0  0  0  0  0  0  0
   -1.4289    0.0000    0.0000 O   0  0  0  0  0  0  0  0  0  0  0  0
   -0.0000    0.0000    0.0000 O   0  0  0  0  0  0  0  0  0  0  0  0
    0.7145    0.0000    0.0000 C   0  0  0  0  0  0  0  0  0  0  0  0
    0.7145    0.0000    0.0000 O   0  0  0  0  0  0  0  0  0  0  0  0
    1.4290    0.0000    0.0000 C   0  0  0  0  0  0  0  0  0  0  0  0
    2.1434    0.0000    0.0000 C   0  0  0  0  0  0  0  0  0  0  0  0
    2.8579    0.0000    0.0000 C   0  0  0  0  0  0  0  0  0  0  0  0
    3.5724    0.0000    0.0000 C   0  0  0  0  0  0  0  0  0  0  0  0
    4.2868    0.0000    0.0000 C   0  0  0  0  0  0  0  0  0  0  0  0
    4.2868    0.0000    0.0000 C   0  0  0  0  0  0  0  0  0  0  0  0
    3.5724    0.0000    0.0000 C   0  0  0  0  0  0  0  0  0  0  0  0
    2.8579    0.0000    0.0000 C   0  0  0  0  0  0  0  0  0  0  0  0
    5.0013    0.0000    0.0000 O   0  0  0  0  0  0  0  0  0  0  0  0
    5.0013    0.0000    0.0000 O   0  0  0  0  0  0  0  0  0  0  0  0
    1.4290    0.0000    0.0000 O   0  0  0  0  0  0  0  0  0  0  0  0
    2.8579    0.0000    0.0000 O   0  0  0  0  0  0  0  0  0  0  0  0
    2.8579    0.0000    0.0000 O   0  0  0  0  0  0  0  0  0  0  0  0
  1  2  1  0      
  2  3  1  0      
  3  4  1  0      
  4  5  1  0      
  5  6  1  0      
  6  7  1  0      
  2  7  1  0      
  6  8  1  0      
  8  9  1  0      
  9 10  1  0      
 10 11  1  0      
 11 12  1  0      
 12 13  1  0      
 13 14  1  0      
 14 15  1  0      
 10 15  1  0      
 14 16  1  0      
 16 17  1  0      
 17 18  1  0      
 18 19  1  0      
 19 20  2  0      
 20 21  1  0      
 21 22  2  0      
 22 23  1  0      
 23 24  2  0      
 19 24  1  0      
 22 25  1  0      
 21 26  1  0      
 13 27  1  0      
 12 28  1  0      
 11 29  1  0      
 29 30  1  0      
 30 31  2  0      
 32 30  1  4      
 32 33  2  0      
 33 34  1  0      
 34 35  2  0      
 35 36  1  0      
 36 37  2  0      
 37 38  1  0      
 38 39  2  0      
 34 39  1  0      
 37 40  1  0      
 36 41  1  0      
  5 42  1  0      
  4 43  1  0      
  3 44  1  0      
M  END
>  <Bioactivity>
Forsythoside A has anticomplementary, antimicrobial, antiinflammatory and antiendotoxin activities. Forsythoside A inhibits Infected cells was confirmed by infecting primary chicken embryo kidney cell
s

>  <CAS>
79916-77-1

>  <Col>
2

>  <Formula>
C29H36O15

>  <ID>
T3670

>  <Index>
691

>  <MOLENAME>
Forsythoside A

>  <MolWt>
624.59

>  <Pathways>
Others

>  <Plate>
PLATE 009

>  <QR code>
1151480828

>  <Receptor>
Others

>  <Reference>
1. Li H, et al. Phytother Res. 2011 Mar;25(3):338-42. 

>  <Row>
F

>  <SMILES>
CC1C(C(C(C(O1)OCC2C(C(C(C(O2)OCCC3=CC(=C(C=C3)O)O)O)O)OC(=O)C=CC4=CC(=C(C=C4)O)O)O)O)O

>  <Target>
Others

>  <Weight>
10.1mg

$$$$
Lab-1.sdf
  ChemDraw05232018482D

 32 37  0  0  0  0  0  0  0  0999 V2000
   -3.7623    0.0000    0.0000 C   0  0  0  0  0  0  0  0  0  0  0  0
   -2.9864    0.0000    0.0000 C   0  0  0  0  0  0  0  0  0  0  0  0
   -2.3557    0.0000    0.0000 O   0  0  0  0  0  0  0  0  0  0  0  0
   -2.8412    0.0000    0.0000 O   0  0  0  0  0  0  0  0  0  0  0  0
   -2.0653    0.0000    0.0000 C   0  0  0  0  0  0  0  0  0  0  0  0
   -1.8360    0.0000    0.0000 C   0  0  0  0  0  0  0  0  0  0  0  0
   -1.0114    0.0000    0.0000 C   0  0  0  0  0  0  0  0  0  0  0  0
   -0.4796    0.0000    0.0000 C   0  0  0  0  0  0  0  0  0  0  0  0
    0.3326    0.0000    0.0000 C   0  0  0  0  0  0  0  0  0  0  0  0
    0.6129    0.0000    0.0000 C   0  0  0  0  0  0  0  0  0  0  0  0
    0.0811    0.0000    0.0000 C   0  0  0  0  0  0  0  0  0  0  0  0
   -0.7311    0.0000    0.0000 C   0  0  0  0  0  0  0  0  0  0  0  0
   -1.3824    0.0000    0.0000 C   0  0  0  0  0  0  0  0  0  0  0  0
   -0.6183    0.0000    0.0000 O   0  0  0  0  0  0  0  0  0  0  0  0
    0.3614    0.0000    0.0000 C   0  0  0  0  0  0  0  0  0  0  0  0
    1.1735    0.0000    0.0000 C   0  0  0  0  0  0  0  0  0  0  0  0
    1.7053    0.0000    0.0000 C   0  0  0  0  0  0  0  0  0  0  0  0
    1.4250    0.0000    0.0000 C   0  0  0  0  0  0  0  0  0  0  0  0
    1.9569    0.0000    0.0000 C   0  0  0  0  0  0  0  0  0  0  0  0
    2.7690    0.0000    0.0000 C   0  0  0  0  0  0  0  0  0  0  0  0
    3.0493    0.0000    0.0000 C   0  0  0  0  0  0  0  0  0  0  0  0
    2.5175    0.0000    0.0000 C   0  0  0  0  0  0  0  0  0  0  0  0
    3.8614    0.0000    0.0000 O   0  0  0  0  0  0  0  0  0  0  0  0
    1.1447    0.0000    0.0000 C   0  0  0  0  0  0  0  0  0  0  0  0
   -1.3713    0.0000    0.0000 C   0  0  0  0  0  0  0  0  0  0  0  0
   -2.3423    0.0000    0.0000 C   0  0  0  0  0  0  0  0  0  0  0  0
   -3.1596    0.0000    0.0000 C   0  0  0  0  0  0  0  0  0  0  0  0
   -3.6659    0.0000    0.0000 O   0  0  0  0  0  0  0  0  0  0  0  0
   -3.3550    0.0000    0.0000 C   0  0  0  0  0  0  0  0  0  0  0  0
   -3.8614    0.0000    0.0000 O   0  0  0  0  0  0  0  0  0  0  0  0
   -2.5378    0.0000    0.0000 C   0  0  0  0  0  0  0  0  0  0  0  0
   -2.0314    0.0000    0.0000 C   0  0  0  0  0  0  0  0  0  0  0  0
  1  2  1  0      
  2  3  2  0      
  2  4  1  0      
  4  5  1  0      
  5  6  1  0      
  6  7  1  0      
  7  8  1  0      
  8  9  1  0      
  9 10  1  0      
 10 11  1  0      
 11 12  1  0      
  7 12  1  0      
 12 13  1  0      
  5 13  1  0      
 13 14  1  0      
 12 14  1  0      
 11 15  1  0      
 15 16  1  0      
 16 17  1  0      
 17 18  1  0      
 10 18  1  0      
 18 19  1  0      
 19 20  1  0      
 20 21  1  0      
 21 22  1  0      
 17 22  1  0      
 21 23  1  0      
 18 24  1  0      
  7 25  1  0      
  6 26  1  0      
 26 27  2  0      
 27 28  1  0      
 28 29  1  0      
 29 30  2  0      
 29 31  1  0      
 31 32  2  0      
 26 32  1  0      
M  END
>  <Bioactivity>
Cinobufagin is a specific Na+/K+-ATPase inhibitor. About as active as ouabain.

>  <CAS>
470-37-1

>  <Col>
3

>  <Formula>
C26H34O6

>  <ID>
T3432

>  <Index>
692

>  <MOLENAME>
Cinobufagin

>  <MolWt>
442.55

>  <Pathways>
Membrane Transporter/Ion Channel

>  <Plate>
PLATE 009

>  <QR code>
1151480829

>  <Receptor>
Na+/K+-ATPase

>  <Reference>
1. Toma S, et al. Xenobiotica. 1987 Oct;17(10):1195-202.

>  <Row>
F

>  <SMILES>
CC(=O)OC1C(C2(CCC3C(C24C1O4)CCC5C3(CCC(C5)O)C)C)C6=COC(=O)C=C6

>  <Target>
ATPase inhibitor

>  <Weight>
10.3mg

$$$$
Lab-1.sdf
  ChemDraw05232018482D

 11 11  0  0  0  0  0  0  0  0999 V2000
    1.0717    0.0000    0.0000 C   0  0  0  0  0  0  0  0  0  0  0  0
    1.0717    0.0000    0.0000 C   0  0  0  0  0  0  0  0  0  0  0  0
    0.3573    0.0000    0.0000 C   0  0  0  0  0  0  0  0  0  0  0  0
   -0.3572    0.0000    0.0000 C   0  0  0  0  0  0  0  0  0  0  0  0
   -0.3572    0.0000    0.0000 C   0  0  0  0  0  0  0  0  0  0  0  0
    0.3573    0.0000    0.0000 C   0  0  0  0  0  0  0  0  0  0  0  0
    0.3573    0.0000    0.0000 C   0  0  0  0  0  0  0  0  0  0  0  0
    1.0717    0.0000    0.0000 C   0  0  0  0  0  0  0  0  0  0  0  0
    1.0717    0.0000    0.0000 O   0  0  0  0  0  0  0  0  0  0  0  0
   -1.0717    0.0000    0.0000 O   0  0  0  0  0  0  0  0  0  0  0  0
    0.3573    0.0000    0.0000 O   0  0  0  0  0  0  0  0  0  0  0  0
  1  2  2  0      
  2  3  1  0      
  3  4  2  0      
  4  5  1  0      
  5  6  2  0      
  1  6  1  0      
  6  7  1  0      
  7  8  1  0      
  8  9  1  0      
  4 10  1  0      
  3 11  1  0      
M  END
>  <Bioactivity>
3,4-Dihydroxyphenylethanol is an active ingredient that extracted from olive. It is one of the most efficient and secure antioxidant and can be used in the cardiovascular drugs

>  <CAS>
10597-60-1

>  <Col>
4

>  <Formula>
C8H10O3

>  <ID>
T3412

>  <Index>
693

>  <MOLENAME>
3,4-Dihydroxyphenylethanol

>  <MolWt>
154.16

>  <Pathways>
Others

>  <Plate>
PLATE 009

>  <QR code>
1151480830

>  <Receptor>
Others

>  <Reference>
1. Yunden J, et al. Chem Res Toxicol. 2009 May; 22(5): 835?841.

>  <Row>
F

>  <SMILES>
C1=CC(=C(C=C1CCO)O)O

>  <Target>
Others

>  <Weight>
10.3mg

$$$$
Lab-1.sdf
  ChemDraw05232018482D

 35 39  0  0  0  0  0  0  0  0999 V2000
   -2.7151    0.0000    0.0000 C   0  0  0  0  0  0  0  0  0  0  0  0
   -2.3026    0.0000    0.0000 C   0  0  0  0  0  0  0  0  0  0  0  0
   -3.1276    0.0000    0.0000 C   0  0  0  0  0  0  0  0  0  0  0  0
   -3.5401    0.0000    0.0000 C   0  0  0  0  0  0  0  0  0  0  0  0
   -3.1276    0.0000    0.0000 C   0  0  0  0  0  0  0  0  0  0  0  0
   -2.3026    0.0000    0.0000 C   0  0  0  0  0  0  0  0  0  0  0  0
   -1.8901    0.0000    0.0000 C   0  0  0  0  0  0  0  0  0  0  0  0
   -1.0651    0.0000    0.0000 C   0  0  0  0  0  0  0  0  0  0  0  0
   -0.6526    0.0000    0.0000 C   0  0  0  0  0  0  0  0  0  0  0  0
    0.1724    0.0000    0.0000 C   0  0  0  0  0  0  0  0  0  0  0  0
    0.5849    0.0000    0.0000 C   0  0  0  0  0  0  0  0  0  0  0  0
    1.4099    0.0000    0.0000 C   0  0  0  0  0  0  0  0  0  0  0  0
    1.8224    0.0000    0.0000 C   0  0  0  0  0  0  0  0  0  0  0  0
    2.6474    0.0000    0.0000 C   0  0  0  0  0  0  0  0  0  0  0  0
    3.0599    0.0000    0.0000 C   0  0  0  0  0  0  0  0  0  0  0  0
    2.6474    0.0000    0.0000 C   0  0  0  0  0  0  0  0  0  0  0  0
    1.8224    0.0000    0.0000 C   0  0  0  0  0  0  0  0  0  0  0  0
    1.4099    0.0000    0.0000 C   0  0  0  0  0  0  0  0  0  0  0  0
    1.8224    0.0000    0.0000 O   0  0  0  0  0  0  0  0  0  0  0  0
    0.5849    0.0000    0.0000 C   0  0  0  0  0  0  0  0  0  0  0  0
    0.1724    0.0000    0.0000 C   0  0  0  0  0  0  0  0  0  0  0  0
   -0.6526    0.0000    0.0000 C   0  0  0  0  0  0  0  0  0  0  0  0
   -1.0651    0.0000    0.0000 C   0  0  0  0  0  0  0  0  0  0  0  0
   -1.8901    0.0000    0.0000 C   0  0  0  0  0  0  0  0  0  0  0  0
   -0.2401    0.0000    0.0000 C   0  0  0  0  0  0  0  0  0  0  0  0
    3.0599    0.0000    0.0000 C   0  0  0  0  0  0  0  0  0  0  0  0
    3.8849    0.0000    0.0000 O   0  0  0  0  0  0  0  0  0  0  0  0
    3.8849    0.0000    0.0000 O   0  0  0  0  0  0  0  0  0  0  0  0
    3.0599    0.0000    0.0000 O   0  0  0  0  0  0  0  0  0  0  0  0
    0.9974    0.0000    0.0000 C   0  0  0  0  0  0  0  0  0  0  0  0
   -1.4776    0.0000    0.0000 C   0  0  0  0  0  0  0  0  0  0  0  0
   -3.8273    0.0000    0.0000 C   0  0  0  0  0  0  0  0  0  0  0  0
   -3.1564    0.0000    0.0000 C   0  0  0  0  0  0  0  0  0  0  0  0
   -3.8849    0.0000    0.0000 O   0  0  0  0  0  0  0  0  0  0  0  0
   -2.4568    0.0000    0.0000 O   0  0  0  0  0  0  0  0  0  0  0  0
  1  2  1  0      
  2  3  1  0      
  3  4  1  0      
  4  5  1  0      
  5  6  1  0      
  6  7  1  0      
  2  7  1  0      
  7  8  1  0      
  8  9  1  0      
  9 10  1  0      
 10 11  1  0      
 11 12  1  0      
 12 13  2  0      
 13 14  1  0      
 14 15  2  0      
 15 16  1  0      
 16 17  2  0      
 12 17  1  0      
 17 18  1  0      
 18 19  2  0      
 18 20  1  0      
 20 21  2  0      
 11 21  1  0      
 21 22  1  0      
  8 22  1  0      
 22 23  1  0      
 23 24  1  0      
  2 24  1  0      
 22 25  1  0      
 16 26  1  0      
 26 27  2  0      
 15 28  1  0      
 14 29  1  0      
 11 30  1  0      
  8 31  1  0      
  5 32  1  0      
  5 33  1  0      
 33 34  2  0      
 33 35  1  0      
M  END
>  <Bioactivity>
Demethylzeylasteral has strong immunosuppressive activity, can be used in the fields of organ transplantation and autoimmune disorders.  The risk of elevated serum concentrations of estradiol due to t
he inhibition of estradiol glucuronidation by Demethylzeylasteral. Demethylzeylasteral increases both activation and inactivation time constants of Ca(2+) currents, can inhibit significantly the sperm
 acrosome reaction initiated by progesterone.

>  <CAS>
107316-88-1

>  <Col>
5

>  <Formula>
C29H36O6

>  <ID>
T3418

>  <Index>
694

>  <MOLENAME>
Demethylzeylasteral

>  <MolWt>
480.59

>  <Pathways>
Metabolism

>  <Plate>
PLATE 009

>  <QR code>
1151480831

>  <Receptor>
UGT1A6; UGT2B7

>  <Reference>
1. Liu SL et al. Eur J Drug Metab Pharmacokinet. 2014 Jun;39(2):99-102.

>  <Row>
F

>  <SMILES>
CC12CCC(CC1C3(CCC4(C5=CC(=C(C(=C5C(=O)C=C4C3(CC2)C)C=O)O)O)C)C)(C)C(=O)O

>  <Target>
UGT inhibitor

>  <Weight>
10.4mg

$$$$
Lab-1.sdf
  ChemDraw05232018482D

 44 49  0  0  0  0  0  0  0  0999 V2000
    3.4671    0.0000    0.0000 C   0  0  0  0  0  0  0  0  0  0  0  0
    3.7780    0.0000    0.0000 C   0  0  0  0  0  0  0  0  0  0  0  0
    4.5953    0.0000    0.0000 C   0  0  0  0  0  0  0  0  0  0  0  0
    5.1016    0.0000    0.0000 C   0  0  0  0  0  0  0  0  0  0  0  0
    5.9189    0.0000    0.0000 C   0  0  0  0  0  0  0  0  0  0  0  0
    6.2297    0.0000    0.0000 C   0  0  0  0  0  0  0  0  0  0  0  0
    7.0471    0.0000    0.0000 C   0  0  0  0  0  0  0  0  0  0  0  0
    5.7234    0.0000    0.0000 C   0  0  0  0  0  0  0  0  0  0  0  0
    3.2717    0.0000    0.0000 C   0  0  0  0  0  0  0  0  0  0  0  0
    3.5010    0.0000    0.0000 C   0  0  0  0  0  0  0  0  0  0  0  0
    2.8181    0.0000    0.0000 C   0  0  0  0  0  0  0  0  0  0  0  0
    2.1667    0.0000    0.0000 C   0  0  0  0  0  0  0  0  0  0  0  0
    2.4471    0.0000    0.0000 C   0  0  0  0  0  0  0  0  0  0  0  0
    1.9152    0.0000    0.0000 C   0  0  0  0  0  0  0  0  0  0  0  0
    1.1031    0.0000    0.0000 C   0  0  0  0  0  0  0  0  0  0  0  0
    0.8228    0.0000    0.0000 C   0  0  0  0  0  0  0  0  0  0  0  0
    1.3546    0.0000    0.0000 C   0  0  0  0  0  0  0  0  0  0  0  0
    1.0743    0.0000    0.0000 C   0  0  0  0  0  0  0  0  0  0  0  0
    0.2622    0.0000    0.0000 C   0  0  0  0  0  0  0  0  0  0  0  0
   -0.2697    0.0000    0.0000 C   0  0  0  0  0  0  0  0  0  0  0  0
    0.0106    0.0000    0.0000 C   0  0  0  0  0  0  0  0  0  0  0  0
    0.2909    0.0000    0.0000 C   0  0  0  0  0  0  0  0  0  0  0  0
   -0.5212    0.0000    0.0000 C   0  0  0  0  0  0  0  0  0  0  0  0
   -1.3333    0.0000    0.0000 C   0  0  0  0  0  0  0  0  0  0  0  0
   -1.6136    0.0000    0.0000 C   0  0  0  0  0  0  0  0  0  0  0  0
   -1.0818    0.0000    0.0000 C   0  0  0  0  0  0  0  0  0  0  0  0
   -1.6936    0.0000    0.0000 C   0  0  0  0  0  0  0  0  0  0  0  0
   -0.9650    0.0000    0.0000 C   0  0  0  0  0  0  0  0  0  0  0  0
   -2.4258    0.0000    0.0000 O   0  0  0  0  0  0  0  0  0  0  0  0
   -2.7061    0.0000    0.0000 C   0  0  0  0  0  0  0  0  0  0  0  0
   -2.1743    0.0000    0.0000 O   0  0  0  0  0  0  0  0  0  0  0  0
   -3.5182    0.0000    0.0000 C   0  0  0  0  0  0  0  0  0  0  0  0
   -3.7985    0.0000    0.0000 C   0  0  0  0  0  0  0  0  0  0  0  0
   -4.6107    0.0000    0.0000 C   0  0  0  0  0  0  0  0  0  0  0  0
   -4.8910    0.0000    0.0000 C   0  0  0  0  0  0  0  0  0  0  0  0
   -5.7031    0.0000    0.0000 C   0  0  0  0  0  0  0  0  0  0  0  0
   -6.2349    0.0000    0.0000 C   0  0  0  0  0  0  0  0  0  0  0  0
   -5.9546    0.0000    0.0000 C   0  0  0  0  0  0  0  0  0  0  0  0
   -5.1425    0.0000    0.0000 C   0  0  0  0  0  0  0  0  0  0  0  0
   -7.0471    0.0000    0.0000 O   0  0  0  0  0  0  0  0  0  0  0  0
   -5.9834    0.0000    0.0000 O   0  0  0  0  0  0  0  0  0  0  0  0
   -6.7956    0.0000    0.0000 C   0  0  0  0  0  0  0  0  0  0  0  0
    2.8070    0.0000    0.0000 C   0  0  0  0  0  0  0  0  0  0  0  0
    1.9690    0.0000    0.0000 C   0  0  0  0  0  0  0  0  0  0  0  0
  1  2  1  0      
  2  3  1  0      
  3  4  1  0      
  4  5  1  0      
  5  6  2  0      
  6  7  1  0      
  6  8  1  0      
  2  9  1  0      
  9 10  1  0      
 10 11  1  0      
 11 12  1  0      
 12 13  1  0      
  9 13  1  0      
 13 14  1  0      
 14 15  1  0      
 15 16  1  0      
 16 17  1  0      
 12 17  1  0      
 17 18  1  0      
 18 19  1  0      
 19 20  1  0      
 20 21  1  0      
 16 21  1  0      
 21 22  1  0      
 16 22  1  0      
 21 23  1  0      
 23 24  1  0      
 24 25  1  0      
 25 26  1  0      
 20 26  1  0      
 26 27  1  0      
 26 28  1  0      
 25 29  1  0      
 29 30  1  0      
 30 31  2  0      
 32 30  1  4      
 32 33  2  0      
 33 34  1  0      
 34 35  2  0      
 35 36  1  0      
 36 37  2  0      
 37 38  1  0      
 38 39  2  0      
 34 39  1  0      
 37 40  1  0      
 36 41  1  0      
 41 42  1  0      
 13 43  1  0      
 12 44  1  0      
M  END
>  <Bioactivity>
Gamma Oryzanol is a natural nutrient extract isolated from rice bran oil that contains a mixture of sterols and ferulic acids, which may aid in the destruction of free radicals in the skin. It has rec
ently been researched for its ability to slow the progress of melanin pigmentation by intercepting the ultraviolet rays at the skin's surface and hindering their transmission.

>  <CAS>
11042-64-1

>  <Col>
6

>  <Formula>
C40H58O4

>  <ID>
T3606

>  <Index>
695

>  <MOLENAME>
Gamma-Oryzanol

>  <MolWt>
602.9

>  <Pathways>
Others

>  <Plate>
PLATE 009

>  <QR code>
1151480832

>  <Receptor>
Others

>  <Reference>
1. Rao YP, et al. Biochem Biophys Res Commun. 2016 Oct 28;479(4):747-752.

>  <Row>
F

>  <SMILES>
CC(CCC=C(C)C)C1CCC2(C1(CCC34C2CCC5C3(C4)CCC(C5(C)C)OC(=O)C=CC6=CC(=C(C=C6)O)OC)C)C

>  <Target>
Others

>  <Weight>
10.1mg

$$$$
Lab-1.sdf
  ChemDraw05232018482D

 58 63  0  0  0  0  0  0  0  0999 V2000
   -4.6440    0.0000    0.0000 C   0  0  0  0  0  0  0  0  0  0  0  0
   -4.6440    0.0000    0.0000 C   0  0  0  0  0  0  0  0  0  0  0  0
   -5.3585    0.0000    0.0000 C   0  0  0  0  0  0  0  0  0  0  0  0
   -5.3585    0.0000    0.0000 C   0  0  0  0  0  0  0  0  0  0  0  0
   -4.6440    0.0000    0.0000 C   0  0  0  0  0  0  0  0  0  0  0  0
   -3.9296    0.0000    0.0000 C   0  0  0  0  0  0  0  0  0  0  0  0
   -3.9296    0.0000    0.0000 O   0  0  0  0  0  0  0  0  0  0  0  0
   -3.2151    0.0000    0.0000 O   0  0  0  0  0  0  0  0  0  0  0  0
   -2.5006    0.0000    0.0000 C   0  0  0  0  0  0  0  0  0  0  0  0
   -2.5006    0.0000    0.0000 C   0  0  0  0  0  0  0  0  0  0  0  0
   -1.7861    0.0000    0.0000 C   0  0  0  0  0  0  0  0  0  0  0  0
   -1.0717    0.0000    0.0000 C   0  0  0  0  0  0  0  0  0  0  0  0
   -1.0717    0.0000    0.0000 O   0  0  0  0  0  0  0  0  0  0  0  0
   -1.7861    0.0000    0.0000 C   0  0  0  0  0  0  0  0  0  0  0  0
   -1.7861    0.0000    0.0000 O   0  0  0  0  0  0  0  0  0  0  0  0
   -1.0717    0.0000    0.0000 C   0  0  0  0  0  0  0  0  0  0  0  0
   -1.0717    0.0000    0.0000 C   0  0  0  0  0  0  0  0  0  0  0  0
   -0.3572    0.0000    0.0000 O   0  0  0  0  0  0  0  0  0  0  0  0
    0.3573    0.0000    0.0000 C   0  0  0  0  0  0  0  0  0  0  0  0
    0.3573    0.0000    0.0000 C   0  0  0  0  0  0  0  0  0  0  0  0
   -0.3572    0.0000    0.0000 C   0  0  0  0  0  0  0  0  0  0  0  0
   -0.3572    0.0000    0.0000 O   0  0  0  0  0  0  0  0  0  0  0  0
    1.0717    0.0000    0.0000 C   0  0  0  0  0  0  0  0  0  0  0  0
    1.7862    0.0000    0.0000 C   0  0  0  0  0  0  0  0  0  0  0  0
    1.7862    0.0000    0.0000 C   0  0  0  0  0  0  0  0  0  0  0  0
    1.0717    0.0000    0.0000 C   0  0  0  0  0  0  0  0  0  0  0  0
    1.0717    0.0000    0.0000 C   0  0  0  0  0  0  0  0  0  0  0  0
    0.3573    0.0000    0.0000 C   0  0  0  0  0  0  0  0  0  0  0  0
    0.3573    0.0000    0.0000 C   0  0  0  0  0  0  0  0  0  0  0  0
   -0.3572    0.0000    0.0000 C   0  0  0  0  0  0  0  0  0  0  0  0
    1.0717    0.0000    0.0000 C   0  0  0  0  0  0  0  0  0  0  0  0
    2.5007    0.0000    0.0000 O   0  0  0  0  0  0  0  0  0  0  0  0
    3.2152    0.0000    0.0000 C   0  0  0  0  0  0  0  0  0  0  0  0
    3.2152    0.0000    0.0000 C   0  0  0  0  0  0  0  0  0  0  0  0
    3.9296    0.0000    0.0000 C   0  0  0  0  0  0  0  0  0  0  0  0
    4.6441    0.0000    0.0000 C   0  0  0  0  0  0  0  0  0  0  0  0
    4.6441    0.0000    0.0000 C   0  0  0  0  0  0  0  0  0  0  0  0
    3.9296    0.0000    0.0000 O   0  0  0  0  0  0  0  0  0  0  0  0
    5.3586    0.0000    0.0000 C   0  0  0  0  0  0  0  0  0  0  0  0
    6.0730    0.0000    0.0000 O   0  0  0  0  0  0  0  0  0  0  0  0
    5.3586    0.0000    0.0000 O   0  0  0  0  0  0  0  0  0  0  0  0
    3.9296    0.0000    0.0000 O   0  0  0  0  0  0  0  0  0  0  0  0
    2.5007    0.0000    0.0000 O   0  0  0  0  0  0  0  0  0  0  0  0
    1.0717    0.0000    0.0000 O   0  0  0  0  0  0  0  0  0  0  0  0
   -1.7861    0.0000    0.0000 C   0  0  0  0  0  0  0  0  0  0  0  0
   -1.7861    0.0000    0.0000 C   0  0  0  0  0  0  0  0  0  0  0  0
   -2.5006    0.0000    0.0000 C   0  0  0  0  0  0  0  0  0  0  0  0
   -3.2151    0.0000    0.0000 C   0  0  0  0  0  0  0  0  0  0  0  0
   -3.2151    0.0000    0.0000 C   0  0  0  0  0  0  0  0  0  0  0  0
   -2.5006    0.0000    0.0000 C   0  0  0  0  0  0  0  0  0  0  0  0
   -3.9296    0.0000    0.0000 O   0  0  0  0  0  0  0  0  0  0  0  0
   -3.9296    0.0000    0.0000 C   0  0  0  0  0  0  0  0  0  0  0  0
   -0.3572    0.0000    0.0000 C   0  0  0  0  0  0  0  0  0  0  0  0
   -1.7861    0.0000    0.0000 O   0  0  0  0  0  0  0  0  0  0  0  0
   -3.2151    0.0000    0.0000 O   0  0  0  0  0  0  0  0  0  0  0  0
   -4.6440    0.0000    0.0000 O   0  0  0  0  0  0  0  0  0  0  0  0
   -6.0730    0.0000    0.0000 O   0  0  0  0  0  0  0  0  0  0  0  0
   -6.0730    0.0000    0.0000 O   0  0  0  0  0  0  0  0  0  0  0  0
  1  2  1  0      
  2  3  1  0      
  3  4  1  0      
  4  5  1  0      
  5  6  1  0      
  6  7  1  0      
  2  7  1  0      
  6  8  1  0      
  8  9  1  0      
  9 10  1  0      
 10 11  1  0      
 11 12  1  0      
 12 13  1  0      
 13 14  1  0      
  9 14  1  0      
 14 15  1  0      
 15 16  1  0      
 16 17  2  0      
 17 18  1  0      
 18 19  1  0      
 19 20  2  0      
 20 21  1  0      
 16 21  1  0      
 21 22  2  0      
 20 23  1  0      
 23 24  2  0      
 24 25  1  0      
 25 26  2  0      
 19 26  1  0      
 26 27  1  0      
 27 28  1  0      
 28 29  2  0      
 29 30  1  0      
 29 31  1  0      
 25 32  1  0      
 32 33  1  0      
 33 34  1  0      
 34 35  1  0      
 35 36  1  0      
 36 37  1  0      
 37 38  1  0      
 33 38  1  0      
 37 39  1  0      
 39 40  1  0      
 36 41  1  0      
 35 42  1  0      
 34 43  1  0      
 23 44  1  0      
 17 45  1  0      
 45 46  2  0      
 46 47  1  0      
 47 48  2  0      
 48 49  1  0      
 49 50  2  0      
 45 50  1  0      
 48 51  1  0      
 51 52  1  0      
 12 53  1  0      
 11 54  1  0      
 10 55  1  0      
  5 56  1  0      
  4 57  1  0      
  3 58  1  0      
M  END
>  <Bioactivity>
Epimedin C was metabolized via desugarization, dehydrogenation, hydrogenation, dehydroxylation, hydroxylation, demethylation and glucuronidation pathways in vivo. It has potential activity against ost
eoporosis by stimulating osteoblasts.

>  <CAS>
110642-44-9

>  <Col>
7

>  <Formula>
C39H50O19

>  <ID>
T3397

>  <Index>
696

>  <MOLENAME>
Epimedin C

>  <MolWt>
822.8

>  <Pathways>
Others

>  <Plate>
PLATE 009

>  <QR code>
1151480833

>  <Receptor>
Others

>  <Reference>
1. Cui L, et al. Biomed Chromatogr. 2014 Oct;28(10):1306-12.

>  <Row>
F

>  <SMILES>
CC1C(C(C(C(O1)OC2C(C(C(OC2OC3=C(OC4=C(C3=O)C(=CC(=C4CC=C(C)C)OC5C(C(C(C(O5)CO)O)O)O)O)C6=CC=C(C=C6)OC)C)O)O)O)O)O

>  <Target>
Others

>  <Weight>
10.2mg

$$$$
Lab-1.sdf
  ChemDraw05232018482D

 37 40  0  0  0  0  0  0  0  0999 V2000
    0.3572    0.0000    0.0000 C   0  0  0  0  0  0  0  0  0  0  0  0
   -0.3572    0.0000    0.0000 C   0  0  0  0  0  0  0  0  0  0  0  0
   -1.0716    0.0000    0.0000 C   0  0  0  0  0  0  0  0  0  0  0  0
   -1.7861    0.0000    0.0000 C   0  0  0  0  0  0  0  0  0  0  0  0
   -1.7861    0.0000    0.0000 C   0  0  0  0  0  0  0  0  0  0  0  0
   -1.0716    0.0000    0.0000 C   0  0  0  0  0  0  0  0  0  0  0  0
   -0.3572    0.0000    0.0000 O   0  0  0  0  0  0  0  0  0  0  0  0
   -1.0716    0.0000    0.0000 O   0  0  0  0  0  0  0  0  0  0  0  0
   -0.3572    0.0000    0.0000 C   0  0  0  0  0  0  0  0  0  0  0  0
   -0.3572    0.0000    0.0000 C   0  0  0  0  0  0  0  0  0  0  0  0
    0.3572    0.0000    0.0000 O   0  0  0  0  0  0  0  0  0  0  0  0
    1.0717    0.0000    0.0000 C   0  0  0  0  0  0  0  0  0  0  0  0
    1.0717    0.0000    0.0000 C   0  0  0  0  0  0  0  0  0  0  0  0
    0.3572    0.0000    0.0000 C   0  0  0  0  0  0  0  0  0  0  0  0
    0.3572    0.0000    0.0000 O   0  0  0  0  0  0  0  0  0  0  0  0
    1.7861    0.0000    0.0000 C   0  0  0  0  0  0  0  0  0  0  0  0
    2.5006    0.0000    0.0000 C   0  0  0  0  0  0  0  0  0  0  0  0
    2.5006    0.0000    0.0000 C   0  0  0  0  0  0  0  0  0  0  0  0
    1.7861    0.0000    0.0000 C   0  0  0  0  0  0  0  0  0  0  0  0
    1.7861    0.0000    0.0000 C   0  0  0  0  0  0  0  0  0  0  0  0
    2.5006    0.0000    0.0000 C   0  0  0  0  0  0  0  0  0  0  0  0
    2.5006    0.0000    0.0000 C   0  0  0  0  0  0  0  0  0  0  0  0
    3.2151    0.0000    0.0000 C   0  0  0  0  0  0  0  0  0  0  0  0
    1.7861    0.0000    0.0000 C   0  0  0  0  0  0  0  0  0  0  0  0
    3.2151    0.0000    0.0000 O   0  0  0  0  0  0  0  0  0  0  0  0
    1.7861    0.0000    0.0000 O   0  0  0  0  0  0  0  0  0  0  0  0
   -1.0716    0.0000    0.0000 C   0  0  0  0  0  0  0  0  0  0  0  0
   -1.0716    0.0000    0.0000 C   0  0  0  0  0  0  0  0  0  0  0  0
   -1.7861    0.0000    0.0000 C   0  0  0  0  0  0  0  0  0  0  0  0
   -2.5006    0.0000    0.0000 C   0  0  0  0  0  0  0  0  0  0  0  0
   -2.5006    0.0000    0.0000 C   0  0  0  0  0  0  0  0  0  0  0  0
   -1.7861    0.0000    0.0000 C   0  0  0  0  0  0  0  0  0  0  0  0
   -3.2151    0.0000    0.0000 O   0  0  0  0  0  0  0  0  0  0  0  0
   -3.2151    0.0000    0.0000 C   0  0  0  0  0  0  0  0  0  0  0  0
   -2.5006    0.0000    0.0000 O   0  0  0  0  0  0  0  0  0  0  0  0
   -2.5006    0.0000    0.0000 O   0  0  0  0  0  0  0  0  0  0  0  0
   -1.0716    0.0000    0.0000 O   0  0  0  0  0  0  0  0  0  0  0  0
  1  2  1  0      
  2  3  1  0      
  3  4  1  0      
  4  5  1  0      
  5  6  1  0      
  6  7  1  0      
  2  7  1  0      
  6  8  1  0      
  8  9  1  0      
  9 10  2  0      
 10 11  1  0      
 11 12  1  0      
 12 13  2  0      
 13 14  1  0      
  9 14  1  0      
 14 15  2  0      
 13 16  1  0      
 16 17  2  0      
 17 18  1  0      
 18 19  2  0      
 12 19  1  0      
 19 20  1  0      
 20 21  1  0      
 21 22  2  0      
 22 23  1  0      
 22 24  1  0      
 18 25  1  0      
 16 26  1  0      
 10 27  1  0      
 27 28  2  0      
 28 29  1  0      
 29 30  2  0      
 30 31  1  0      
 31 32  2  0      
 27 32  1  0      
 30 33  1  0      
 33 34  1  0      
  5 35  1  0      
  4 36  1  0      
  3 37  1  0      
M  END
>  <Bioactivity>
Baohuoside I exhibits anti-inflammatory activity and anti-osteoporosis activities.  Baohuoside I exerts its antimetastatic effect through the downregulation of CXCR4 expression .  Baohuoside I has ant
i-Y activity, used for a variety of Ys in vitro ,by inhibiting tumor growth and inducing apoptosis by inhibiting ¦Â-catenin-dependent signaling pathways.

>  <CAS>
113558-15-9

>  <Col>
8

>  <Formula>
C27H30O10

>  <ID>
T3396

>  <Index>
697

>  <MOLENAME>
Baohuoside I

>  <MolWt>
514.52

>  <Pathways>
GPCR/G Protein; Immunology/Inflammation; 

>  <Plate>
PLATE 009

>  <QR code>
1151480834

>  <Receptor>
CXCR4

>  <Reference>
1. Kim B, et al. Biochemistry. 2014 Dec 9;53(48):7562-9.

>  <Row>
F

>  <SMILES>
CC1C(C(C(C(O1)OC2=C(OC3=C(C2=O)C(=CC(=C3CC=C(C)C)O)O)C4=CC=C(C=C4)OC)O)O)O

>  <Target>
CXCR inhibitor

>  <Weight>
10.4mg

$$$$
Lab-1.sdf
  ChemDraw05232018482D

 26 27  0  0  0  0  0  0  0  0999 V2000
    0.7145    0.0000    0.0000 C   0  0  0  0  0  0  0  0  0  0  0  0
   -0.0000    0.0000    0.0000 O   0  0  0  0  0  0  0  0  0  0  0  0
   -0.0000    0.0000    0.0000 C   0  0  0  0  0  0  0  0  0  0  0  0
    0.7145    0.0000    0.0000 C   0  0  0  0  0  0  0  0  0  0  0  0
    0.7145    0.0000    0.0000 C   0  0  0  0  0  0  0  0  0  0  0  0
   -0.0000    0.0000    0.0000 C   0  0  0  0  0  0  0  0  0  0  0  0
   -0.7145    0.0000    0.0000 C   0  0  0  0  0  0  0  0  0  0  0  0
   -0.7145    0.0000    0.0000 C   0  0  0  0  0  0  0  0  0  0  0  0
   -1.4289    0.0000    0.0000 O   0  0  0  0  0  0  0  0  0  0  0  0
   -1.4289    0.0000    0.0000 C   0  0  0  0  0  0  0  0  0  0  0  0
   -2.1434    0.0000    0.0000 C   0  0  0  0  0  0  0  0  0  0  0  0
   -2.1434    0.0000    0.0000 C   0  0  0  0  0  0  0  0  0  0  0  0
   -1.4289    0.0000    0.0000 C   0  0  0  0  0  0  0  0  0  0  0  0
   -0.7145    0.0000    0.0000 C   0  0  0  0  0  0  0  0  0  0  0  0
   -0.7145    0.0000    0.0000 O   0  0  0  0  0  0  0  0  0  0  0  0
   -0.0000    0.0000    0.0000 C   0  0  0  0  0  0  0  0  0  0  0  0
   -0.0000    0.0000    0.0000 O   0  0  0  0  0  0  0  0  0  0  0  0
   -1.4289    0.0000    0.0000 O   0  0  0  0  0  0  0  0  0  0  0  0
   -2.8579    0.0000    0.0000 O   0  0  0  0  0  0  0  0  0  0  0  0
   -2.8579    0.0000    0.0000 O   0  0  0  0  0  0  0  0  0  0  0  0
   -1.4289    0.0000    0.0000 O   0  0  0  0  0  0  0  0  0  0  0  0
   -2.1434    0.0000    0.0000 C   0  0  0  0  0  0  0  0  0  0  0  0
    1.4290    0.0000    0.0000 C   0  0  0  0  0  0  0  0  0  0  0  0
    1.4290    0.0000    0.0000 C   0  0  0  0  0  0  0  0  0  0  0  0
    2.1434    0.0000    0.0000 C   0  0  0  0  0  0  0  0  0  0  0  0
    2.8579    0.0000    0.0000 O   0  0  0  0  0  0  0  0  0  0  0  0
  1  2  1  0      
  2  3  1  0      
  3  4  2  0      
  4  5  1  0      
  5  6  2  0      
  6  7  1  0      
  7  8  2  0      
  3  8  1  0      
  8  9  1  0      
  9 10  1  0      
 10 11  1  0      
 11 12  1  0      
 12 13  1  0      
 13 14  1  0      
 14 15  1  0      
 10 15  1  0      
 14 16  1  0      
 16 17  1  0      
 13 18  1  0      
 12 19  1  0      
 11 20  1  0      
  7 21  1  0      
 21 22  1  0      
 23  5  1  4      
 23 24  2  0      
 24 25  1  0      
 25 26  1  0      
M  END
>  <Bioactivity>
Syringin has antitumour, antiproliferative,  immunomodulatory and platelet aggregation inhibiting effects. Syringin can prevent Abeta(25-35)-induced neuronal cell damage. It has anti-inflammatory and 
antinociceptive effects, may be attributed to its in vivo transformation to sinapyl alcohol.

>  <CAS>
118-34-3

>  <Col>
9

>  <Formula>
C17H24O9

>  <ID>
T3408

>  <Index>
698

>  <MOLENAME>
Syringin

>  <MolWt>
372.4

>  <Pathways>
NO/NOS pathway

>  <Plate>
PLATE 009

>  <QR code>
1151480835

>  <Receptor>
NOS

>  <Reference>
1. Cui Y, et al. Fundam Clin Pharmacol. 2015 Apr;29(2):178-84.

>  <Row>
F

>  <SMILES>
COC1=CC(=CC(=C1OC2C(C(C(C(O2)CO)O)O)O)OC)C=CCO

>  <Target>
NOS inhibitor

>  <Weight>
10.2mg

$$$$
Lab-1.sdf
  ChemDraw05232018482D

 18 19  0  0  0  0  0  0  0  0999 V2000
    1.0970    0.0000    0.0000 C   0  0  0  0  0  0  0  0  0  0  0  0
    1.0970    0.0000    0.0000 N   0  0  0  0  0  0  0  0  0  0  0  0
    0.3825    0.0000    0.0000 C   0  0  0  0  0  0  0  0  0  0  0  0
    0.3825    0.0000    0.0000 C   0  0  0  0  0  0  0  0  0  0  0  0
   -0.4021    0.0000    0.0000 N   0  0  0  0  0  0  0  0  0  0  0  0
   -0.6571    0.0000    0.0000 C   0  0  0  0  0  0  0  0  0  0  0  0
   -1.4640    0.0000    0.0000 C   0  0  0  0  0  0  0  0  0  0  0  0
   -2.0161    0.0000    0.0000 O   0  0  0  0  0  0  0  0  0  0  0  0
   -1.7190    0.0000    0.0000 C   0  0  0  0  0  0  0  0  0  0  0  0
   -2.5259    0.0000    0.0000 O   0  0  0  0  0  0  0  0  0  0  0  0
   -0.8870    0.0000    0.0000 C   0  0  0  0  0  0  0  0  0  0  0  0
   -0.4021    0.0000    0.0000 N   0  0  0  0  0  0  0  0  0  0  0  0
    1.0970    0.0000    0.0000 C   0  0  0  0  0  0  0  0  0  0  0  0
    1.0970    0.0000    0.0000 O   0  0  0  0  0  0  0  0  0  0  0  0
    1.8114    0.0000    0.0000 N   0  0  0  0  0  0  0  0  0  0  0  0
    2.5259    0.0000    0.0000 C   0  0  0  0  0  0  0  0  0  0  0  0
    1.8114    0.0000    0.0000 C   0  0  0  0  0  0  0  0  0  0  0  0
    2.5259    0.0000    0.0000 O   0  0  0  0  0  0  0  0  0  0  0  0
  1  2  1  0      
  2  3  1  0      
  3  4  2  0      
  4  5  1  0      
  5  6  1  0      
  6  7  1  0      
  7  8  1  0      
  7  9  1  0      
  9 10  1  0      
  5 11  1  0      
 11 12  2  0      
  3 12  1  0      
  4 13  1  0      
 13 14  2  0      
 13 15  1  0      
 15 16  1  0      
 15 17  1  0      
  2 17  1  0      
 17 18  2  0      
M  END
>  <Bioactivity>
Dyphylline is a xanthine derivative with bronchodilator and vasodilator effects.

>  <CAS>
479-18-5

>  <Col>
10

>  <Formula>
C10H14N4O4

>  <ID>
T0892

>  <Index>
699

>  <MOLENAME>
Diprophylline

>  <MolWt>
254.25

>  <Pathways>
Metabolism

>  <Plate>
PLATE 009

>  <QR code>
1151480836

>  <Receptor>
PDE

>  <Reference>
1. Schwabe U, et al. Naunyn Schmiedebergs Arch Pharmacol. 1985 Sep;330(3):212-21.

>  <Row>
F

>  <SMILES>
CN1C2=C(N(CC(O)CO)C=N2)C(=O)N(C)C1=O

>  <Target>
PDE inhibitor

>  <Weight>
10.3mg

$$$$
Lab-1.sdf
  ChemDraw05232018482D

 26 30  0  0  0  0  0  0  0  0999 V2000
    0.2538    0.0000    0.0000 C   0  0  0  0  0  0  0  0  0  0  0  0
   -0.3654    0.0000    0.0000 N   0  0  0  0  0  0  0  0  0  0  0  0
    0.0352    0.0000    0.0000 C   0  0  0  0  0  0  0  0  0  0  0  0
    0.8564    0.0000    0.0000 C   0  0  0  0  0  0  0  0  0  0  0  0
    1.3351    0.0000    0.0000 C   0  0  0  0  0  0  0  0  0  0  0  0
    2.1564    0.0000    0.0000 C   0  0  0  0  0  0  0  0  0  0  0  0
    2.6350    0.0000    0.0000 C   0  0  0  0  0  0  0  0  0  0  0  0
    2.2925    0.0000    0.0000 C   0  0  0  0  0  0  0  0  0  0  0  0
    1.4712    0.0000    0.0000 C   0  0  0  0  0  0  0  0  0  0  0  0
    0.9925    0.0000    0.0000 C   0  0  0  0  0  0  0  0  0  0  0  0
    0.1713    0.0000    0.0000 C   0  0  0  0  0  0  0  0  0  0  0  0
   -0.0682    0.0000    0.0000 O   0  0  0  0  0  0  0  0  0  0  0  0
   -0.1713    0.0000    0.0000 C   0  0  0  0  0  0  0  0  0  0  0  0
   -0.9925    0.0000    0.0000 C   0  0  0  0  0  0  0  0  0  0  0  0
   -1.4712    0.0000    0.0000 C   0  0  0  0  0  0  0  0  0  0  0  0
   -1.1286    0.0000    0.0000 C   0  0  0  0  0  0  0  0  0  0  0  0
   -2.2924    0.0000    0.0000 C   0  0  0  0  0  0  0  0  0  0  0  0
   -2.6350    0.0000    0.0000 C   0  0  0  0  0  0  0  0  0  0  0  0
   -2.1563    0.0000    0.0000 C   0  0  0  0  0  0  0  0  0  0  0  0
   -1.3351    0.0000    0.0000 C   0  0  0  0  0  0  0  0  0  0  0  0
   -3.4547    0.0000    0.0000 O   0  0  0  0  0  0  0  0  0  0  0  0
   -3.6187    0.0000    0.0000 C   0  0  0  0  0  0  0  0  0  0  0  0
   -2.9004    0.0000    0.0000 O   0  0  0  0  0  0  0  0  0  0  0  0
    2.9004    0.0000    0.0000 O   0  0  0  0  0  0  0  0  0  0  0  0
    3.6187    0.0000    0.0000 C   0  0  0  0  0  0  0  0  0  0  0  0
    3.4547    0.0000    0.0000 O   0  0  0  0  0  0  0  0  0  0  0  0
  1  2  1  0      
  2  3  1  0      
  3  4  1  0      
  4  5  1  0      
  5  6  2  0      
  6  7  1  0      
  7  8  2  0      
  8  9  1  0      
  9 10  2  0      
  5 10  1  0      
 10 11  1  0      
 11 12  2  0      
 11 13  1  0      
 13 14  1  0      
 14 15  2  0      
 15 16  1  0      
  2 16  1  0      
 15 17  1  0      
 17 18  2  0      
 18 19  1  0      
 19 20  2  0      
 14 20  1  0      
 18 21  1  0      
 21 22  1  0      
 22 23  1  0      
 17 23  1  0      
  8 24  1  0      
 24 25  1  0      
 25 26  1  0      
  7 26  1  0      
M  END
>  <Bioactivity>
Protopine is a benzylisoquinoline alkaloid. It has been found to inhibit histamine H1 receptors and platelet aggregation, and acts as an analgesic.

>  <CAS>
130-86-9

>  <Col>
11

>  <Formula>
C20H19NO5

>  <ID>
T3429

>  <Index>
700

>  <MOLENAME>
Protopine

>  <MolWt>
353.37

>  <Pathways>
Neuroscience

>  <Plate>
PLATE 009

>  <QR code>
1151480837

>  <Receptor>
Histamine H1 receptor; platelet aggregation

>  <Reference>
1. Saeed SA, et al. Pharmacol Res. 1997 Jul;36(1):1-7.

>  <Row>
F

>  <SMILES>
CN1CCC2=CC3=C(C=C2C(=O)CC4=C(C1)C5=C(C=C4)OCO5)OCO3

>  <Target>
histamine receptors inhibitor; platelet aggregation inhibitor

>  <Weight>
10.1mg

$$$$
Lab-1.sdf
  ChemDraw05232018482D

 55 60  0  0  0  0  0  0  0  0999 V2000
    6.9197    0.0000    0.0000 C   0  0  0  0  0  0  0  0  0  0  0  0
    6.6088    0.0000    0.0000 C   0  0  0  0  0  0  0  0  0  0  0  0
    5.7915    0.0000    0.0000 C   0  0  0  0  0  0  0  0  0  0  0  0
    5.2852    0.0000    0.0000 C   0  0  0  0  0  0  0  0  0  0  0  0
    4.4679    0.0000    0.0000 C   0  0  0  0  0  0  0  0  0  0  0  0
    3.9615    0.0000    0.0000 C   0  0  0  0  0  0  0  0  0  0  0  0
    4.6129    0.0000    0.0000 C   0  0  0  0  0  0  0  0  0  0  0  0
    3.4551    0.0000    0.0000 C   0  0  0  0  0  0  0  0  0  0  0  0
    3.6844    0.0000    0.0000 C   0  0  0  0  0  0  0  0  0  0  0  0
    3.0016    0.0000    0.0000 C   0  0  0  0  0  0  0  0  0  0  0  0
    2.3502    0.0000    0.0000 C   0  0  0  0  0  0  0  0  0  0  0  0
    2.6305    0.0000    0.0000 C   0  0  0  0  0  0  0  0  0  0  0  0
    2.0987    0.0000    0.0000 C   0  0  0  0  0  0  0  0  0  0  0  0
    1.2866    0.0000    0.0000 C   0  0  0  0  0  0  0  0  0  0  0  0
    1.0063    0.0000    0.0000 C   0  0  0  0  0  0  0  0  0  0  0  0
    1.5381    0.0000    0.0000 C   0  0  0  0  0  0  0  0  0  0  0  0
    1.2578    0.0000    0.0000 C   0  0  0  0  0  0  0  0  0  0  0  0
    0.4457    0.0000    0.0000 C   0  0  0  0  0  0  0  0  0  0  0  0
   -0.0862    0.0000    0.0000 C   0  0  0  0  0  0  0  0  0  0  0  0
    0.1942    0.0000    0.0000 C   0  0  0  0  0  0  0  0  0  0  0  0
   -0.3377    0.0000    0.0000 C   0  0  0  0  0  0  0  0  0  0  0  0
   -1.1498    0.0000    0.0000 C   0  0  0  0  0  0  0  0  0  0  0  0
   -1.4301    0.0000    0.0000 C   0  0  0  0  0  0  0  0  0  0  0  0
   -0.8983    0.0000    0.0000 C   0  0  0  0  0  0  0  0  0  0  0  0
   -1.5101    0.0000    0.0000 C   0  0  0  0  0  0  0  0  0  0  0  0
   -0.7815    0.0000    0.0000 C   0  0  0  0  0  0  0  0  0  0  0  0
   -2.2423    0.0000    0.0000 O   0  0  0  0  0  0  0  0  0  0  0  0
   -2.7741    0.0000    0.0000 C   0  0  0  0  0  0  0  0  0  0  0  0
   -3.5862    0.0000    0.0000 C   0  0  0  0  0  0  0  0  0  0  0  0
   -4.1180    0.0000    0.0000 C   0  0  0  0  0  0  0  0  0  0  0  0
   -3.8377    0.0000    0.0000 C   0  0  0  0  0  0  0  0  0  0  0  0
   -3.0256    0.0000    0.0000 C   0  0  0  0  0  0  0  0  0  0  0  0
   -2.4938    0.0000    0.0000 O   0  0  0  0  0  0  0  0  0  0  0  0
   -2.7453    0.0000    0.0000 C   0  0  0  0  0  0  0  0  0  0  0  0
   -3.2771    0.0000    0.0000 O   0  0  0  0  0  0  0  0  0  0  0  0
   -4.3696    0.0000    0.0000 O   0  0  0  0  0  0  0  0  0  0  0  0
   -4.9302    0.0000    0.0000 O   0  0  0  0  0  0  0  0  0  0  0  0
   -3.8665    0.0000    0.0000 O   0  0  0  0  0  0  0  0  0  0  0  0
   -4.6787    0.0000    0.0000 C   0  0  0  0  0  0  0  0  0  0  0  0
   -4.9590    0.0000    0.0000 C   0  0  0  0  0  0  0  0  0  0  0  0
   -5.7711    0.0000    0.0000 C   0  0  0  0  0  0  0  0  0  0  0  0
   -6.3030    0.0000    0.0000 C   0  0  0  0  0  0  0  0  0  0  0  0
   -6.0227    0.0000    0.0000 C   0  0  0  0  0  0  0  0  0  0  0  0
   -5.2105    0.0000    0.0000 O   0  0  0  0  0  0  0  0  0  0  0  0
   -6.5545    0.0000    0.0000 C   0  0  0  0  0  0  0  0  0  0  0  0
   -6.2742    0.0000    0.0000 O   0  0  0  0  0  0  0  0  0  0  0  0
   -7.1151    0.0000    0.0000 O   0  0  0  0  0  0  0  0  0  0  0  0
   -6.0514    0.0000    0.0000 C   0  0  0  0  0  0  0  0  0  0  0  0
   -6.8636    0.0000    0.0000 O   0  0  0  0  0  0  0  0  0  0  0  0
   -4.4272    0.0000    0.0000 O   0  0  0  0  0  0  0  0  0  0  0  0
    0.4745    0.0000    0.0000 C   0  0  0  0  0  0  0  0  0  0  0  0
    2.3790    0.0000    0.0000 O   0  0  0  0  0  0  0  0  0  0  0  0
    2.1526    0.0000    0.0000 C   0  0  0  0  0  0  0  0  0  0  0  0
    3.3101    0.0000    0.0000 O   0  0  0  0  0  0  0  0  0  0  0  0
    7.1151    0.0000    0.0000 C   0  0  0  0  0  0  0  0  0  0  0  0
  1  2  1  0      
  2  3  2  0      
  3  4  1  0      
  4  5  1  0      
  5  6  1  0      
  6  7  1  0      
  6  8  1  0      
  8  9  1  0      
  9 10  1  0      
 10 11  1  0      
 11 12  1  0      
  8 12  1  0      
 12 13  1  0      
 13 14  1  0      
 14 15  1  0      
 15 16  1  0      
 11 16  1  0      
 16 17  1  0      
 17 18  1  0      
 18 19  1  0      
 19 20  1  0      
 15 20  1  0      
 20 21  1  0      
 21 22  1  0      
 22 23  1  0      
 23 24  1  0      
 19 24  1  0      
 24 25  1  0      
 24 26  1  0      
 23 27  1  0      
 27 28  1  0      
 28 29  1  0      
 29 30  1  0      
 30 31  1  0      
 31 32  1  0      
 32 33  1  0      
 28 33  1  0      
 32 34  1  0      
 34 35  1  0      
 31 36  1  0      
 30 37  1  0      
 29 38  1  0      
 38 39  1  0      
 39 40  1  0      
 40 41  1  0      
 41 42  1  0      
 42 43  1  0      
 43 44  1  0      
 39 44  1  0      
 43 45  1  0      
 45 46  1  0      
 42 47  1  0      
 41 48  1  0      
 48 49  1  0      
 40 50  1  0      
 20 51  1  0      
 13 52  1  0      
 11 53  1  0      
  6 54  1  0      
  2 55  1  0      
M  END
>  <Bioactivity>
Ginsenoside Rg3 possess an ability to inhibit the lung metastasis of tumor cells via inhibition of the adhesion and invasion of tumor cells.  It inhibits the proliferation of human umbilical vein endo
thelial cells(HUVEC) and has anti-angiogenesis activities.

>  <CAS>
14197-60-5

>  <Col>
2

>  <Formula>
C42H72O13

>  <ID>
T3402

>  <Index>
701

>  <MOLENAME>
Ginsenoside Rg3

>  <MolWt>
785.02

>  <Pathways>
Angiogenesis

>  <Plate>
PLATE 009

>  <QR code>
1151480825

>  <Receptor>
EGFR

>  <Reference>
1. Joo EJ, et al. Chem Biol Interact. 2015 May 25;233:25-34.

>  <Row>
G

>  <SMILES>
CC(=CCCC(C)(C1CCC2(C1C(CC3C2CCC4C3(CCC(C4(C)C)OC5C(C(C(C(O5)CO)O)O)OC6C(C(C(C(O6)CO)O)CO)O)C)O)C)O)C

>  <Target>
EGFR inhibitor

>  <Weight>
10.2mg

$$$$
Lab-1.sdf
  ChemDraw05232018482D

 25 27  0  0  0  0  0  0  0  0999 V2000
   -3.9295    0.0000    0.0000 C   0  0  0  0  0  0  0  0  0  0  0  0
   -3.2151    0.0000    0.0000 O   0  0  0  0  0  0  0  0  0  0  0  0
   -2.5006    0.0000    0.0000 C   0  0  0  0  0  0  0  0  0  0  0  0
   -1.7861    0.0000    0.0000 C   0  0  0  0  0  0  0  0  0  0  0  0
   -1.0717    0.0000    0.0000 C   0  0  0  0  0  0  0  0  0  0  0  0
   -1.0717    0.0000    0.0000 C   0  0  0  0  0  0  0  0  0  0  0  0
   -1.7861    0.0000    0.0000 C   0  0  0  0  0  0  0  0  0  0  0  0
   -2.5006    0.0000    0.0000 C   0  0  0  0  0  0  0  0  0  0  0  0
   -0.3573    0.0000    0.0000 C   0  0  0  0  0  0  0  0  0  0  0  0
   -0.3573    0.0000    0.0000 C   0  0  0  0  0  0  0  0  0  0  0  0
    0.3572    0.0000    0.0000 C   0  0  0  0  0  0  0  0  0  0  0  0
    0.3572    0.0000    0.0000 O   0  0  0  0  0  0  0  0  0  0  0  0
    1.0717    0.0000    0.0000 C   0  0  0  0  0  0  0  0  0  0  0  0
    1.0717    0.0000    0.0000 C   0  0  0  0  0  0  0  0  0  0  0  0
    0.3572    0.0000    0.0000 O   0  0  0  0  0  0  0  0  0  0  0  0
    1.7860    0.0000    0.0000 C   0  0  0  0  0  0  0  0  0  0  0  0
    2.5005    0.0000    0.0000 C   0  0  0  0  0  0  0  0  0  0  0  0
    2.5005    0.0000    0.0000 C   0  0  0  0  0  0  0  0  0  0  0  0
    1.7860    0.0000    0.0000 C   0  0  0  0  0  0  0  0  0  0  0  0
    1.7860    0.0000    0.0000 O   0  0  0  0  0  0  0  0  0  0  0  0
    3.2150    0.0000    0.0000 O   0  0  0  0  0  0  0  0  0  0  0  0
    3.9295    0.0000    0.0000 C   0  0  0  0  0  0  0  0  0  0  0  0
    3.2150    0.0000    0.0000 O   0  0  0  0  0  0  0  0  0  0  0  0
    1.7860    0.0000    0.0000 O   0  0  0  0  0  0  0  0  0  0  0  0
    2.5005    0.0000    0.0000 C   0  0  0  0  0  0  0  0  0  0  0  0
  1  2  1  0      
  2  3  1  0      
  3  4  2  0      
  4  5  1  0      
  5  6  2  0      
  6  7  1  0      
  7  8  2  0      
  3  8  1  0      
  6  9  1  0      
  9 10  2  0      
 10 11  1  0      
 11 12  2  0      
 11 13  1  0      
 13 14  2  0      
 14 15  1  0      
  9 15  1  0      
 14 16  1  0      
 16 17  2  0      
 17 18  1  0      
 18 19  2  0      
 13 19  1  0      
 19 20  1  0      
 18 21  1  0      
 21 22  1  0      
 17 23  1  0      
 16 24  1  0      
 24 25  1  0      
M  END
>  <Bioactivity>
Lysionotin has eliminating phlegm , expectorant, softening effects.?

>  <CAS>
152743-19-6

>  <Col>
3

>  <Formula>
C18H16O7

>  <ID>
T3381

>  <Index>
702

>  <MOLENAME>
Lysionotin

>  <MolWt>
344.32

>  <Pathways>
Others

>  <Plate>
PLATE 009

>  <QR code>
1151480824

>  <Receptor>
Others

>  <Reference>
1. Hu Y, et al. Mol Biol Rep. 2014 Mar;41(3):1693-702.

>  <Row>
G

>  <SMILES>
COC1=CC=C(C=C1)C2=CC(=O)C3=C(O2)C(=C(C(=C3O)OC)O)OC

>  <Target>
Others

>  <Weight>
10.3mg

$$$$
Lab-1.sdf
  ChemDraw05232018482D

 40 45  0  0  0  0  0  0  0  0999 V2000
   -3.5723    0.0000    0.0000 C   0  0  0  0  0  0  0  0  0  0  0  0
   -4.2868    0.0000    0.0000 C   0  0  0  0  0  0  0  0  0  0  0  0
   -4.2868    0.0000    0.0000 C   0  0  0  0  0  0  0  0  0  0  0  0
   -3.5723    0.0000    0.0000 C   0  0  0  0  0  0  0  0  0  0  0  0
   -2.8579    0.0000    0.0000 C   0  0  0  0  0  0  0  0  0  0  0  0
   -2.8579    0.0000    0.0000 C   0  0  0  0  0  0  0  0  0  0  0  0
   -2.1434    0.0000    0.0000 C   0  0  0  0  0  0  0  0  0  0  0  0
   -2.1434    0.0000    0.0000 C   0  0  0  0  0  0  0  0  0  0  0  0
   -1.4289    0.0000    0.0000 C   0  0  0  0  0  0  0  0  0  0  0  0
   -1.4289    0.0000    0.0000 O   0  0  0  0  0  0  0  0  0  0  0  0
   -0.7144    0.0000    0.0000 C   0  0  0  0  0  0  0  0  0  0  0  0
   -0.7144    0.0000    0.0000 C   0  0  0  0  0  0  0  0  0  0  0  0
   -1.4289    0.0000    0.0000 O   0  0  0  0  0  0  0  0  0  0  0  0
   -0.0000    0.0000    0.0000 C   0  0  0  0  0  0  0  0  0  0  0  0
    0.7145    0.0000    0.0000 C   0  0  0  0  0  0  0  0  0  0  0  0
    0.7145    0.0000    0.0000 C   0  0  0  0  0  0  0  0  0  0  0  0
   -0.0000    0.0000    0.0000 C   0  0  0  0  0  0  0  0  0  0  0  0
   -0.0000    0.0000    0.0000 O   0  0  0  0  0  0  0  0  0  0  0  0
    1.4290    0.0000    0.0000 O   0  0  0  0  0  0  0  0  0  0  0  0
   -0.0000    0.0000    0.0000 C   0  0  0  0  0  0  0  0  0  0  0  0
   -0.7144    0.0000    0.0000 C   0  0  0  0  0  0  0  0  0  0  0  0
   -0.7144    0.0000    0.0000 C   0  0  0  0  0  0  0  0  0  0  0  0
   -0.0000    0.0000    0.0000 C   0  0  0  0  0  0  0  0  0  0  0  0
    0.7145    0.0000    0.0000 C   0  0  0  0  0  0  0  0  0  0  0  0
    0.7145    0.0000    0.0000 C   0  0  0  0  0  0  0  0  0  0  0  0
    1.4290    0.0000    0.0000 C   0  0  0  0  0  0  0  0  0  0  0  0
    1.4290    0.0000    0.0000 C   0  0  0  0  0  0  0  0  0  0  0  0
    2.1434    0.0000    0.0000 C   0  0  0  0  0  0  0  0  0  0  0  0
    2.1434    0.0000    0.0000 O   0  0  0  0  0  0  0  0  0  0  0  0
    2.8579    0.0000    0.0000 C   0  0  0  0  0  0  0  0  0  0  0  0
    3.5724    0.0000    0.0000 C   0  0  0  0  0  0  0  0  0  0  0  0
    4.2869    0.0000    0.0000 C   0  0  0  0  0  0  0  0  0  0  0  0
    4.2869    0.0000    0.0000 C   0  0  0  0  0  0  0  0  0  0  0  0
    3.5724    0.0000    0.0000 C   0  0  0  0  0  0  0  0  0  0  0  0
    2.8579    0.0000    0.0000 C   0  0  0  0  0  0  0  0  0  0  0  0
    2.1434    0.0000    0.0000 O   0  0  0  0  0  0  0  0  0  0  0  0
    5.0013    0.0000    0.0000 O   0  0  0  0  0  0  0  0  0  0  0  0
    3.5724    0.0000    0.0000 O   0  0  0  0  0  0  0  0  0  0  0  0
   -1.4289    0.0000    0.0000 O   0  0  0  0  0  0  0  0  0  0  0  0
   -5.0013    0.0000    0.0000 O   0  0  0  0  0  0  0  0  0  0  0  0
  1  2  2  0      
  2  3  1  0      
  3  4  2  0      
  4  5  1  0      
  5  6  2  0      
  1  6  1  0      
  6  7  1  0      
  7  8  2  0      
  8  9  1  0      
  9 10  2  0      
  9 11  1  0      
 11 12  2  0      
 12 13  1  0      
  7 13  1  0      
 12 14  1  0      
 14 15  2  0      
 15 16  1  0      
 16 17  2  0      
 11 17  1  0      
 17 18  1  0      
 15 19  1  0      
 14 20  1  0      
 20 21  2  0      
 21 22  1  0      
 22 23  2  0      
 23 24  1  0      
 24 25  2  0      
 20 25  1  0      
 24 26  1  0      
 26 27  2  0      
 27 28  1  0      
 28 29  2  0      
 28 30  1  0      
 30 31  2  0      
 31 32  1  0      
 32 33  2  0      
 33 34  1  0      
 34 35  2  0      
 30 35  1  0      
 35 36  1  0      
 26 36  1  0      
 33 37  1  0      
 31 38  1  0      
 21 39  1  0      
  3 40  1  0      
M  END
>  <Bioactivity>
Amentoflavone can interact with many other medications by being a potent inhibitor of CYP3A4 and CYP2C9, which are proteins used for drug metabolism in the body, is an inhibitor of human cathepsin B.
It  has antimalarial activity in trials significant affinities towards the delta-1, kappa opioid receptors (as an antagonist) and binds to benzodiazepine receptors.Amentoflavone may be a potential le
ad for a new type of anti-inflammatory agents having dual inhibitory activity of group II phospholipase A2 and cyclooxygenase.Amentoflavone and quercetin differentially exerted supression of PGE2 bio
synthesis via downregulation of COX-2/iNOS expression.

>  <CAS>
1617-53-4

>  <Col>
4

>  <Formula>
C30H18O10

>  <ID>
T3417

>  <Index>
703

>  <MOLENAME>
Amentoflavone

>  <MolWt>
538.46

>  <Pathways>
Metabolism; Enzyme; Neuroscience

>  <Plate>
PLATE 009

>  <QR code>
1151480823

>  <Receptor>
CYP3A4; CYP2C9; phospholipase A2; cyclooxygenase; COX-2/Inos; ¦Ê-opioid receptor 

>  <Reference>
1. Sakthivel KM, et al. Int Immunopharmacol. 2013 Nov;17(3):907-16.

>  <Row>
G

>  <SMILES>
C1=CC(=CC=C1C2=CC(=O)C3=C(O2)C(=C(C=C3O)O)C4=C(C=CC(=C4)C5=CC(=O)C6=C(C=C(C=C6O5)O)O)O)O

>  <Target>
CYP; phospholipase; cyclooxygenase; COX inhibitor; ¦Ê-opioid receptor antagonist

>  <Weight>
10.3mg

$$$$
Lab-1.sdf
  ChemDraw05232018482D

 21 20  0  0  0  0  0  0  0  0999 V2000
   -4.6440    0.0000    0.0000 S   0  0  0  0  0  0  0  0  0  0  0  0
   -4.2315    0.0000    0.0000 O   0  0  0  0  0  0  0  0  0  0  0  0
   -5.0564    0.0000    0.0000 O   0  0  0  0  0  0  0  0  0  0  0  0
   -5.3584    0.0000    0.0000 O   0  0  0  0  0  0  0  0  0  0  0  0
   -6.0728    0.0000    0.0000 Na  0  0  0  0  0  0  0  0  0  0  0  0
   -3.9295    0.0000    0.0000 C   0  0  0  0  0  0  0  0  0  0  0  0
   -3.2150    0.0000    0.0000 C   0  0  0  0  0  0  0  0  0  0  0  0
   -3.2150    0.0000    0.0000 O   0  0  0  0  0  0  0  0  0  0  0  0
   -2.5006    0.0000    0.0000 O   0  0  0  0  0  0  0  0  0  0  0  0
   -1.7861    0.0000    0.0000 C   0  0  0  0  0  0  0  0  0  0  0  0
   -1.0717    0.0000    0.0000 C   0  0  0  0  0  0  0  0  0  0  0  0
   -0.3573    0.0000    0.0000 C   0  0  0  0  0  0  0  0  0  0  0  0
    0.3572    0.0000    0.0000 C   0  0  0  0  0  0  0  0  0  0  0  0
    1.0717    0.0000    0.0000 C   0  0  0  0  0  0  0  0  0  0  0  0
    1.7861    0.0000    0.0000 C   0  0  0  0  0  0  0  0  0  0  0  0
    2.5005    0.0000    0.0000 C   0  0  0  0  0  0  0  0  0  0  0  0
    3.2150    0.0000    0.0000 C   0  0  0  0  0  0  0  0  0  0  0  0
    3.9295    0.0000    0.0000 C   0  0  0  0  0  0  0  0  0  0  0  0
    4.6439    0.0000    0.0000 C   0  0  0  0  0  0  0  0  0  0  0  0
    5.3583    0.0000    0.0000 C   0  0  0  0  0  0  0  0  0  0  0  0
    6.0728    0.0000    0.0000 C   0  0  0  0  0  0  0  0  0  0  0  0
  1  2  2  0      
  1  3  2  0      
  1  4  1  0      
  4  5  1  0      
  1  6  1  0      
  6  7  1  0      
  7  8  2  0      
  7  9  1  0      
  9 10  1  0      
 10 11  1  0      
 11 12  1  0      
 12 13  1  0      
 13 14  1  0      
 14 15  1  0      
 15 16  1  0      
 16 17  1  0      
 17 18  1  0      
 18 19  1  0      
 19 20  1  0      
 20 21  1  0      
M  END
>  <Bioactivity>
Sodium houttuyfonate is anti-pseudomonas agents, inhibits virulence related motility of Pseudomonas. It  inhibits biofilm formation and alginate biosynthesis-associated gene expression in a clinical s
train of Pseudomonas aeruginosa in vitro. Sodium houttuyfonate has anti-inflammatory activity, inhibits inflammation by blocking the MAPKs/NF-¦ÊB signaling pathways in bovine endometrial epithelial ce
lls.

>  <CAS>
1847-58-1

>  <Col>
5

>  <Formula>
C14H27NaO5S

>  <ID>
T3603

>  <Index>
704

>  <MOLENAME>
Sodium houttuyfonate

>  <MolWt>
330.4

>  <Pathways>
MAPK Signaling

>  <Plate>
PLATE 009

>  <QR code>
1151480822

>  <Receptor>
MAPKs; NF-¦ÊB

>  <Reference>
1. Wu DQ, et al. Exp Ther Med. 2015 Aug;10(2):753-758.

>  <Row>
G

>  <SMILES>
S(=O)(=O)(O([Na]))CC(=O)OCCCCCCCCCCCC

>  <Target>
MAPKs inhibitor; NF-¦ÊB inhibitor

>  <Weight>
10.2mg

$$$$
Lab-1.sdf
  ChemDraw05232018482D

 25 28  0  0  0  0  0  0  0  0999 V2000
    4.0503    0.0000    0.0000 C   0  0  0  0  0  0  0  0  0  0  0  0
    3.2268    0.0000    0.0000 C   0  0  0  0  0  0  0  0  0  0  0  0
    2.7741    0.0000    0.0000 C   0  0  0  0  0  0  0  0  0  0  0  0
    1.9505    0.0000    0.0000 C   0  0  0  0  0  0  0  0  0  0  0  0
    1.4978    0.0000    0.0000 C   0  0  0  0  0  0  0  0  0  0  0  0
    1.8688    0.0000    0.0000 C   0  0  0  0  0  0  0  0  0  0  0  0
    1.4161    0.0000    0.0000 C   0  0  0  0  0  0  0  0  0  0  0  0
    0.5925    0.0000    0.0000 C   0  0  0  0  0  0  0  0  0  0  0  0
    0.2215    0.0000    0.0000 C   0  0  0  0  0  0  0  0  0  0  0  0
    0.6742    0.0000    0.0000 C   0  0  0  0  0  0  0  0  0  0  0  0
   -0.6021    0.0000    0.0000 C   0  0  0  0  0  0  0  0  0  0  0  0
   -1.0547    0.0000    0.0000 C   0  0  0  0  0  0  0  0  0  0  0  0
   -1.8506    0.0000    0.0000 C   0  0  0  0  0  0  0  0  0  0  0  0
   -1.8898    0.0000    0.0000 C   0  0  0  0  0  0  0  0  0  0  0  0
   -1.1182    0.0000    0.0000 O   0  0  0  0  0  0  0  0  0  0  0  0
   -2.6230    0.0000    0.0000 C   0  0  0  0  0  0  0  0  0  0  0  0
   -3.3171    0.0000    0.0000 C   0  0  0  0  0  0  0  0  0  0  0  0
   -3.2779    0.0000    0.0000 C   0  0  0  0  0  0  0  0  0  0  0  0
   -2.5446    0.0000    0.0000 C   0  0  0  0  0  0  0  0  0  0  0  0
   -4.0503    0.0000    0.0000 O   0  0  0  0  0  0  0  0  0  0  0  0
   -0.6837    0.0000    0.0000 C   0  0  0  0  0  0  0  0  0  0  0  0
   -1.1364    0.0000    0.0000 O   0  0  0  0  0  0  0  0  0  0  0  0
    0.1398    0.0000    0.0000 O   0  0  0  0  0  0  0  0  0  0  0  0
    2.6925    0.0000    0.0000 O   0  0  0  0  0  0  0  0  0  0  0  0
    2.8558    0.0000    0.0000 C   0  0  0  0  0  0  0  0  0  0  0  0
  1  2  1  0      
  2  3  2  0      
  3  4  1  0      
  4  5  1  0      
  5  6  2  0      
  6  7  1  0      
  7  8  2  0      
  8  9  1  0      
  9 10  2  0      
  5 10  1  0      
  9 11  1  0      
 11 12  2  0      
 12 13  1  0      
 13 14  2  0      
 14 15  1  0      
 11 15  1  0      
 14 16  1  0      
 16 17  2  0      
 17 18  1  0      
 18 19  2  0      
 13 19  1  0      
 17 20  1  0      
 12 21  1  0      
 21 22  2  0      
 21 23  1  0      
  8 23  1  0      
  6 24  1  0      
  2 25  1  0      
M  END
>  <Bioactivity>
Psoralidin inhibits Akt phosphorylation and phosphatidylinositol 3-kinase activation and transcriptionally. Psoralidin possesses antiY and chemopreventive properties.

>  <CAS>
18642-23-4

>  <Col>
6

>  <Formula>
C20H16O5

>  <ID>
T3399

>  <Index>
705

>  <MOLENAME>
Psoralidin

>  <MolWt>
336.34

>  <Pathways>
PI3K/Akt/mTOR Signaling; Tyrosine Kinase/Adaptors

>  <Plate>
PLATE 009

>  <QR code>
1151480821

>  <Receptor>
Akt; Phosphatidylinositol 3-kinase

>  <Reference>
1. Sun H, et al. J Pharm Sci. 2015 Jul;104(7):2369-77. 

>  <Row>
G

>  <SMILES>
CC(=CCC1=C(C=C2C(=C1)C3=C(C4=C(O3)C=C(C=C4)O)C(=O)O2)O)C

>  <Target>
Akt inhibitor;  Phosphatidylinositol 3-kinase inhibitor

>  <Weight>
10.2mg

$$$$
Lab-1.sdf
  ChemDraw05232018482D

 29 32  0  0  0  0  0  0  0  0999 V2000
    3.0173    0.0000    0.0000 C   0  0  0  0  0  0  0  0  0  0  0  0
    2.3345    0.0000    0.0000 C   0  0  0  0  0  0  0  0  0  0  0  0
    2.3940    0.0000    0.0000 C   0  0  0  0  0  0  0  0  0  0  0  0
    3.1364    0.0000    0.0000 O   0  0  0  0  0  0  0  0  0  0  0  0
    1.7111    0.0000    0.0000 O   0  0  0  0  0  0  0  0  0  0  0  0
    1.7706    0.0000    0.0000 C   0  0  0  0  0  0  0  0  0  0  0  0
    2.0000    0.0000    0.0000 C   0  0  0  0  0  0  0  0  0  0  0  0
    1.3171    0.0000    0.0000 C   0  0  0  0  0  0  0  0  0  0  0  0
    0.6657    0.0000    0.0000 C   0  0  0  0  0  0  0  0  0  0  0  0
    0.9460    0.0000    0.0000 C   0  0  0  0  0  0  0  0  0  0  0  0
    0.4142    0.0000    0.0000 C   0  0  0  0  0  0  0  0  0  0  0  0
   -0.3979    0.0000    0.0000 C   0  0  0  0  0  0  0  0  0  0  0  0
   -0.6782    0.0000    0.0000 C   0  0  0  0  0  0  0  0  0  0  0  0
   -0.1464    0.0000    0.0000 C   0  0  0  0  0  0  0  0  0  0  0  0
   -0.4267    0.0000    0.0000 C   0  0  0  0  0  0  0  0  0  0  0  0
   -1.2388    0.0000    0.0000 C   0  0  0  0  0  0  0  0  0  0  0  0
   -1.7706    0.0000    0.0000 C   0  0  0  0  0  0  0  0  0  0  0  0
   -2.5828    0.0000    0.0000 C   0  0  0  0  0  0  0  0  0  0  0  0
   -3.1146    0.0000    0.0000 C   0  0  0  0  0  0  0  0  0  0  0  0
   -3.9268    0.0000    0.0000 O   0  0  0  0  0  0  0  0  0  0  0  0
   -2.8343    0.0000    0.0000 C   0  0  0  0  0  0  0  0  0  0  0  0
   -2.0222    0.0000    0.0000 C   0  0  0  0  0  0  0  0  0  0  0  0
   -1.4903    0.0000    0.0000 C   0  0  0  0  0  0  0  0  0  0  0  0
   -1.2100    0.0000    0.0000 C   0  0  0  0  0  0  0  0  0  0  0  0
    1.3059    0.0000    0.0000 C   0  0  0  0  0  0  0  0  0  0  0  0
    2.5828    0.0000    0.0000 C   0  0  0  0  0  0  0  0  0  0  0  0
    3.2657    0.0000    0.0000 O   0  0  0  0  0  0  0  0  0  0  0  0
    3.1147    0.0000    0.0000 C   0  0  0  0  0  0  0  0  0  0  0  0
    3.9268    0.0000    0.0000 O   0  0  0  0  0  0  0  0  0  0  0  0
  1  2  1  0      
  2  3  1  0      
  3  4  2  0      
  3  5  1  0      
  5  6  1  0      
  6  7  1  0      
  7  8  1  0      
  8  9  1  0      
  9 10  1  0      
  6 10  1  0      
 10 11  1  0      
 11 12  1  0      
 12 13  1  0      
 13 14  1  0      
  9 14  1  0      
 14 15  1  0      
 15 16  1  0      
 16 17  1  0      
 17 18  2  0      
 18 19  1  0      
 19 20  2  0      
 19 21  1  0      
 21 22  1  0      
 22 23  1  0      
 13 23  1  0      
 17 23  1  0      
 23 24  1  0      
 10 25  1  0      
  6 26  1  0      
 26 27  2  0      
 26 28  1  0      
 28 29  1  0      
M  END
>  <Bioactivity>
17 alpha-propionate(CB-03-01) is a?new topical and peripherally selective androgen antagonist.

>  <CAS>
19608-29-8

>  <Col>
7

>  <Formula>
C24H34O5

>  <ID>
T3357

>  <Index>
706

>  <MOLENAME>
17 alpha-propionate

>  <MolWt>
402.52

>  <Pathways>
Endocrinology/ Hormones

>  <Plate>
PLATE 009

>  <QR code>
1151480820

>  <Receptor>
androgen

>  <Reference>
1. Trifu V, et al.. Br J Dermatol. 2011 Jul;165(1):177-83.

>  <Row>
G

>  <SMILES>
CCC(=O)OC1(CCC2C1(CCC3C2CCC4=CC(=O)CCC34C)C)C(=O)CO

>  <Target>
androgen antagonist

>  <Weight>
10.1mg

$$$$
Lab-1.sdf
  ChemDraw05232018482D

 32 35  0  0  0  0  0  0  0  0999 V2000
   -5.3583    0.0000    0.0000 C   0  0  0  0  0  0  0  0  0  0  0  0
   -4.6440    0.0000    0.0000 O   0  0  0  0  0  0  0  0  0  0  0  0
   -3.9295    0.0000    0.0000 C   0  0  0  0  0  0  0  0  0  0  0  0
   -3.2150    0.0000    0.0000 C   0  0  0  0  0  0  0  0  0  0  0  0
   -2.5005    0.0000    0.0000 C   0  0  0  0  0  0  0  0  0  0  0  0
   -2.5005    0.0000    0.0000 C   0  0  0  0  0  0  0  0  0  0  0  0
   -3.2150    0.0000    0.0000 C   0  0  0  0  0  0  0  0  0  0  0  0
   -3.9295    0.0000    0.0000 C   0  0  0  0  0  0  0  0  0  0  0  0
   -1.7861    0.0000    0.0000 C   0  0  0  0  0  0  0  0  0  0  0  0
   -1.7861    0.0000    0.0000 C   0  0  0  0  0  0  0  0  0  0  0  0
   -1.0717    0.0000    0.0000 O   0  0  0  0  0  0  0  0  0  0  0  0
   -0.3572    0.0000    0.0000 C   0  0  0  0  0  0  0  0  0  0  0  0
   -0.3572    0.0000    0.0000 C   0  0  0  0  0  0  0  0  0  0  0  0
   -1.0717    0.0000    0.0000 C   0  0  0  0  0  0  0  0  0  0  0  0
   -1.0717    0.0000    0.0000 O   0  0  0  0  0  0  0  0  0  0  0  0
    0.3572    0.0000    0.0000 C   0  0  0  0  0  0  0  0  0  0  0  0
    1.0717    0.0000    0.0000 C   0  0  0  0  0  0  0  0  0  0  0  0
    1.0717    0.0000    0.0000 C   0  0  0  0  0  0  0  0  0  0  0  0
    0.3572    0.0000    0.0000 C   0  0  0  0  0  0  0  0  0  0  0  0
    1.7861    0.0000    0.0000 O   0  0  0  0  0  0  0  0  0  0  0  0
    2.5006    0.0000    0.0000 C   0  0  0  0  0  0  0  0  0  0  0  0
    2.5006    0.0000    0.0000 C   0  0  0  0  0  0  0  0  0  0  0  0
    3.2150    0.0000    0.0000 C   0  0  0  0  0  0  0  0  0  0  0  0
    3.9295    0.0000    0.0000 C   0  0  0  0  0  0  0  0  0  0  0  0
    3.9295    0.0000    0.0000 C   0  0  0  0  0  0  0  0  0  0  0  0
    3.2150    0.0000    0.0000 O   0  0  0  0  0  0  0  0  0  0  0  0
    4.6440    0.0000    0.0000 C   0  0  0  0  0  0  0  0  0  0  0  0
    5.3583    0.0000    0.0000 O   0  0  0  0  0  0  0  0  0  0  0  0
    4.6440    0.0000    0.0000 O   0  0  0  0  0  0  0  0  0  0  0  0
    3.2150    0.0000    0.0000 O   0  0  0  0  0  0  0  0  0  0  0  0
    1.7861    0.0000    0.0000 O   0  0  0  0  0  0  0  0  0  0  0  0
   -3.2150    0.0000    0.0000 O   0  0  0  0  0  0  0  0  0  0  0  0
  1  2  1  0      
  2  3  1  0      
  3  4  2  0      
  4  5  1  0      
  5  6  2  0      
  6  7  1  0      
  7  8  2  0      
  3  8  1  0      
  6  9  1  0      
  9 10  2  0      
 10 11  1  0      
 11 12  1  0      
 12 13  2  0      
 13 14  1  0      
  9 14  1  0      
 14 15  2  0      
 13 16  1  0      
 16 17  2  0      
 17 18  1  0      
 18 19  2  0      
 12 19  1  0      
 18 20  1  0      
 20 21  1  0      
 21 22  1  0      
 22 23  1  0      
 23 24  1  0      
 24 25  1  0      
 25 26  1  0      
 21 26  1  0      
 25 27  1  0      
 27 28  1  0      
 24 29  1  0      
 23 30  1  0      
 22 31  1  0      
  4 32  1  0      
M  END
>  <Bioactivity>
Calycosin 7-O-¦Â-D-glucoside has antimicrobial activity. Calycosin 7-O-¦Â-D-glucoside is anticipated to be a promising anti-HIV agent. It shows scavenging activity to DPPH radicals, and superoxide ani
on . Calycosin 7-O-¦Â-D-glucopyranoside possesses an alleviating effect on osteoarthritis and can increase the fluidity of brain cell membrane in ischemia-reperfusion rats. Calycosin 7-O-¦Â-D-glucopyr
anoside possesses a protective effect on rat hepatocytes, an inhibitory effect on COX-2 activity.

>  <CAS>
20633-67-4

>  <Col>
8

>  <Formula>
C22H22O10

>  <ID>
T3388

>  <Index>
707

>  <MOLENAME>
Calycosin-7-O-beta-D-glucoside

>  <MolWt>
446.4

>  <Pathways>
Proteases/Proteasome

>  <Plate>
PLATE 009

>  <QR code>
1151480819

>  <Receptor>
MMP-2; MMP-9

>  <Reference>
1. Fu S, et al. J Ethnopharmacol. 2014 Aug 8;155(1):692-701.

>  <Row>
G

>  <SMILES>
COC1=C(C=C(C=C1)C2=COC3=C(C2=O)C=CC(=C3)OC4C(C(C(C(O4)CO)O)O)O)O

>  <Target>
MMP inhibitor

>  <Weight>
10.4mg

$$$$
Lab-1.sdf
  ChemDraw05232018482D

 21 21  0  0  0  0  0  0  0  0999 V2000
   -5.0011    0.0000    0.0000 C   0  0  0  0  0  0  0  0  0  0  0  0
   -4.2867    0.0000    0.0000 C   0  0  0  0  0  0  0  0  0  0  0  0
   -3.5723    0.0000    0.0000 C   0  0  0  0  0  0  0  0  0  0  0  0
   -2.8578    0.0000    0.0000 C   0  0  0  0  0  0  0  0  0  0  0  0
   -2.1433    0.0000    0.0000 C   0  0  0  0  0  0  0  0  0  0  0  0
   -1.4290    0.0000    0.0000 C   0  0  0  0  0  0  0  0  0  0  0  0
   -0.7145    0.0000    0.0000 C   0  0  0  0  0  0  0  0  0  0  0  0
    0.0000    0.0000    0.0000 C   0  0  0  0  0  0  0  0  0  0  0  0
    0.0000    0.0000    0.0000 O   0  0  0  0  0  0  0  0  0  0  0  0
    0.7145    0.0000    0.0000 C   0  0  0  0  0  0  0  0  0  0  0  0
    1.4289    0.0000    0.0000 C   0  0  0  0  0  0  0  0  0  0  0  0
    2.1433    0.0000    0.0000 C   0  0  0  0  0  0  0  0  0  0  0  0
    2.8578    0.0000    0.0000 C   0  0  0  0  0  0  0  0  0  0  0  0
    3.5722    0.0000    0.0000 C   0  0  0  0  0  0  0  0  0  0  0  0
    3.5722    0.0000    0.0000 C   0  0  0  0  0  0  0  0  0  0  0  0
    2.8578    0.0000    0.0000 C   0  0  0  0  0  0  0  0  0  0  0  0
    2.1433    0.0000    0.0000 C   0  0  0  0  0  0  0  0  0  0  0  0
    4.2867    0.0000    0.0000 O   0  0  0  0  0  0  0  0  0  0  0  0
    4.2867    0.0000    0.0000 O   0  0  0  0  0  0  0  0  0  0  0  0
    5.0011    0.0000    0.0000 C   0  0  0  0  0  0  0  0  0  0  0  0
   -1.4290    0.0000    0.0000 O   0  0  0  0  0  0  0  0  0  0  0  0
  1  2  1  0      
  2  3  1  0      
  3  4  1  0      
  4  5  1  0      
  5  6  1  0      
  6  7  1  0      
  7  8  1  0      
  8  9  2  0      
  8 10  1  0      
 10 11  1  0      
 11 12  1  0      
 12 13  2  0      
 13 14  1  0      
 14 15  2  0      
 15 16  1  0      
 16 17  2  0      
 12 17  1  0      
 15 18  1  0      
 14 19  1  0      
 19 20  1  0      
  6 21  1  0      
M  END
>  <Bioactivity>
6-Gingerol may as an antioxidant to protect HL-60 cells from oxidative stress. It has protective effects for Yous tumors in the bowel,breast tissue, ovaries,the pancreas,among other tissues.

>  <CAS>
23513-14-6

>  <Col>
9

>  <Formula>
C17H26O4

>  <ID>
T3405

>  <Index>
708

>  <MOLENAME>
6-Gingerol

>  <MolWt>
294.4

>  <Pathways>
Others

>  <Plate>
PLATE 009

>  <QR code>
1151480818

>  <Receptor>
Others

>  <Reference>
1.  Tzeng TF, et al. Phytomedicine. 2015 Apr 15;22(4):452-61.

>  <Row>
G

>  <SMILES>
CCCCCC(CC(=O)CCC1=CC(=C(C=C1)O)OC)O

>  <Target>
Others

>  <Weight>
10.1mg

$$$$
Lab-1.sdf
  ChemDraw05232018482D

 28 30  0  0  0  0  0  0  0  0999 V2000
   -1.4290    0.0000    0.0000 C   0  0  0  0  0  0  0  0  0  0  0  0
   -1.4290    0.0000    0.0000 C   0  0  0  0  0  0  0  0  0  0  0  0
   -0.7145    0.0000    0.0000 C   0  0  0  0  0  0  0  0  0  0  0  0
   -0.7145    0.0000    0.0000 C   0  0  0  0  0  0  0  0  0  0  0  0
   -1.4290    0.0000    0.0000 C   0  0  0  0  0  0  0  0  0  0  0  0
   -2.1434    0.0000    0.0000 C   0  0  0  0  0  0  0  0  0  0  0  0
   -2.1434    0.0000    0.0000 O   0  0  0  0  0  0  0  0  0  0  0  0
   -2.8578    0.0000    0.0000 O   0  0  0  0  0  0  0  0  0  0  0  0
   -0.0001    0.0000    0.0000 C   0  0  0  0  0  0  0  0  0  0  0  0
    0.7145    0.0000    0.0000 C   0  0  0  0  0  0  0  0  0  0  0  0
    0.7145    0.0000    0.0000 O   0  0  0  0  0  0  0  0  0  0  0  0
   -0.0001    0.0000    0.0000 C   0  0  0  0  0  0  0  0  0  0  0  0
   -0.0001    0.0000    0.0000 O   0  0  0  0  0  0  0  0  0  0  0  0
    0.7145    0.0000    0.0000 C   0  0  0  0  0  0  0  0  0  0  0  0
    1.4289    0.0000    0.0000 C   0  0  0  0  0  0  0  0  0  0  0  0
    2.1434    0.0000    0.0000 C   0  0  0  0  0  0  0  0  0  0  0  0
    2.1434    0.0000    0.0000 C   0  0  0  0  0  0  0  0  0  0  0  0
    1.4289    0.0000    0.0000 C   0  0  0  0  0  0  0  0  0  0  0  0
    0.7145    0.0000    0.0000 O   0  0  0  0  0  0  0  0  0  0  0  0
    1.4289    0.0000    0.0000 C   0  0  0  0  0  0  0  0  0  0  0  0
    2.1434    0.0000    0.0000 O   0  0  0  0  0  0  0  0  0  0  0  0
    2.8578    0.0000    0.0000 O   0  0  0  0  0  0  0  0  0  0  0  0
    2.8578    0.0000    0.0000 O   0  0  0  0  0  0  0  0  0  0  0  0
    1.4289    0.0000    0.0000 O   0  0  0  0  0  0  0  0  0  0  0  0
   -0.0001    0.0000    0.0000 C   0  0  0  0  0  0  0  0  0  0  0  0
    0.7145    0.0000    0.0000 O   0  0  0  0  0  0  0  0  0  0  0  0
   -0.7145    0.0000    0.0000 O   0  0  0  0  0  0  0  0  0  0  0  0
   -1.4290    0.0000    0.0000 C   0  0  0  0  0  0  0  0  0  0  0  0
  1  2  1  0      
  2  3  1  0      
  3  4  1  0      
  4  5  1  0      
  5  6  1  0      
  6  7  1  0      
  2  7  1  0      
  6  8  1  0      
  4  9  1  0      
  9 10  2  0      
 10 11  1  0      
 11 12  1  0      
  3 12  1  0      
 12 13  1  0      
 13 14  1  0      
 14 15  1  0      
 15 16  1  0      
 16 17  1  0      
 17 18  1  0      
 18 19  1  0      
 14 19  1  0      
 18 20  1  0      
 20 21  1  0      
 17 22  1  0      
 16 23  1  0      
 15 24  1  0      
  9 25  1  0      
 25 26  2  0      
 25 27  1  0      
 27 28  1  0      
M  END
>  <Bioactivity>
Morroniside would act as a regulator of hepatic inflammatory reactions and lipid metabolism in db/db mice. It exhibits protective effects against diabetic renal damage and human umbilical vein endothe
lial cells , by inhibiting hyperglycemia and oxidative stress.  Morroniside can notably protect the brain from damage induced by focal cerebral ischemia which might be related to morroniside antioxida
nt and anti-apoptotic properties in the brain.

>  <CAS>
25406-64-8

>  <Col>
10

>  <Formula>
C17H26O11

>  <ID>
T3414

>  <Index>
709

>  <MOLENAME>
Morroniside

>  <MolWt>
406.38

>  <Pathways>
Others

>  <Plate>
PLATE 009

>  <QR code>
1151480817

>  <Receptor>
Others

>  <Reference>
1. Xiong S, et al. J Pharmacol Sci. 2015 Apr;127(4):414-8.

>  <Row>
G

>  <SMILES>
CC1C2C(CC(O1)O)C(=COC2OC3C(C(C(C(O3)CO)O)O)O)C(=O)OC

>  <Target>
Others

>  <Weight>
10.3mg

$$$$
Lab-1.sdf
  ChemDraw05232018482D

 39 43  0  0  0  0  0  0  0  0999 V2000
    3.1464    0.0000    0.0000 C   0  0  0  0  0  0  0  0  0  0  0  0
    2.3757    0.0000    0.0000 C   0  0  0  0  0  0  0  0  0  0  0  0
    2.6700    0.0000    0.0000 C   0  0  0  0  0  0  0  0  0  0  0  0
    1.6050    0.0000    0.0000 C   0  0  0  0  0  0  0  0  0  0  0  0
    1.4745    0.0000    0.0000 C   0  0  0  0  0  0  0  0  0  0  0  0
    0.7038    0.0000    0.0000 C   0  0  0  0  0  0  0  0  0  0  0  0
    0.0636    0.0000    0.0000 C   0  0  0  0  0  0  0  0  0  0  0  0
   -0.4567    0.0000    0.0000 C   0  0  0  0  0  0  0  0  0  0  0  0
   -0.1624    0.0000    0.0000 C   0  0  0  0  0  0  0  0  0  0  0  0
   -0.6827    0.0000    0.0000 O   0  0  0  0  0  0  0  0  0  0  0  0
    0.6523    0.0000    0.0000 O   0  0  0  0  0  0  0  0  0  0  0  0
    0.9466    0.0000    0.0000 C   0  0  0  0  0  0  0  0  0  0  0  0
   -0.5767    0.0000    0.0000 C   0  0  0  0  0  0  0  0  0  0  0  0
   -1.3474    0.0000    0.0000 O   0  0  0  0  0  0  0  0  0  0  0  0
   -0.4462    0.0000    0.0000 O   0  0  0  0  0  0  0  0  0  0  0  0
   -1.0865    0.0000    0.0000 C   0  0  0  0  0  0  0  0  0  0  0  0
   -1.0419    0.0000    0.0000 C   0  0  0  0  0  0  0  0  0  0  0  0
   -0.3298    0.0000    0.0000 C   0  0  0  0  0  0  0  0  0  0  0  0
    0.3182    0.0000    0.0000 C   0  0  0  0  0  0  0  0  0  0  0  0
    1.0844    0.0000    0.0000 C   0  0  0  0  0  0  0  0  0  0  0  0
    1.2026    0.0000    0.0000 C   0  0  0  0  0  0  0  0  0  0  0  0
    0.5547    0.0000    0.0000 C   0  0  0  0  0  0  0  0  0  0  0  0
   -0.2116    0.0000    0.0000 C   0  0  0  0  0  0  0  0  0  0  0  0
   -0.7762    0.0000    0.0000 C   0  0  0  0  0  0  0  0  0  0  0  0
   -1.5985    0.0000    0.0000 C   0  0  0  0  0  0  0  0  0  0  0  0
   -2.0593    0.0000    0.0000 N   0  0  0  0  0  0  0  0  0  0  0  0
   -1.8116    0.0000    0.0000 C   0  0  0  0  0  0  0  0  0  0  0  0
   -2.5533    0.0000    0.0000 C   0  0  0  0  0  0  0  0  0  0  0  0
   -3.1464    0.0000    0.0000 C   0  0  0  0  0  0  0  0  0  0  0  0
   -2.8843    0.0000    0.0000 C   0  0  0  0  0  0  0  0  0  0  0  0
   -2.3319    0.0000    0.0000 C   0  0  0  0  0  0  0  0  0  0  0  0
   -1.8837    0.0000    0.0000 C   0  0  0  0  0  0  0  0  0  0  0  0
   -2.1807    0.0000    0.0000 O   0  0  0  0  0  0  0  0  0  0  0  0
   -2.9958    0.0000    0.0000 C   0  0  0  0  0  0  0  0  0  0  0  0
    2.0157    0.0000    0.0000 O   0  0  0  0  0  0  0  0  0  0  0  0
    2.3999    0.0000    0.0000 C   0  0  0  0  0  0  0  0  0  0  0  0
    1.8244    0.0000    0.0000 O   0  0  0  0  0  0  0  0  0  0  0  0
    0.5839    0.0000    0.0000 O   0  0  0  0  0  0  0  0  0  0  0  0
    2.0814    0.0000    0.0000 O   0  0  0  0  0  0  0  0  0  0  0  0
  1  2  1  0      
  2  3  1  0      
  2  4  1  0      
  4  5  1  0      
  5  6  1  0      
  6  7  1  0      
  7  8  1  0      
  8  9  1  0      
  9 10  2  0      
  9 11  1  0      
 11 12  1  0      
  7 13  1  0      
 13 14  2  0      
 13 15  1  0      
 15 16  1  0      
 16 17  1  0      
 17 18  1  0      
 18 19  2  0      
 19 20  1  0      
 20 21  2  0      
 21 22  1  0      
 22 23  2  0      
 18 23  1  0      
 23 24  1  0      
 24 25  1  0      
 25 26  1  0      
 26 27  1  0      
 17 27  1  0      
 27 28  1  0      
 28 29  1  0      
 29 30  1  0      
 26 30  1  0      
 27 31  1  0      
 31 32  2  0      
 16 32  1  0      
 32 33  1  0      
 33 34  1  0      
 21 35  1  0      
 35 36  1  0      
 36 37  1  0      
 20 37  1  0      
  7 38  1  0      
  2 39  1  0      
M  END
>  <Bioactivity>
Homoharringtonine is an alkaloid inhibitor of protein synthesis with activity in myeloid malignancies. It might have clinical activity in some patients with myelodysplastic syndrome . Homoharringtonin
e enhances the paracellular permeability of Caco-2 cell monolayers by modulating the protein expression and localization of claudin isoforms. Homoharringtonine has anti-Y and antileukemic activities, 
may have the potential ability to treat acute, chronic myeloid leukaemia and Gefitinib-resistant NSCLC.

>  <CAS>
26833-87-4

>  <Col>
11

>  <Formula>
C29H39NO9

>  <ID>
T3380

>  <Index>
710

>  <MOLENAME>
Homoharringtonine

>  <MolWt>
545.61

>  <Pathways>
JAK/STAT Signaling

>  <Plate>
PLATE 009

>  <QR code>
1151480816

>  <Receptor>
STAT3

>  <Reference>
1. Jin J, et al. Lancet Oncol. 2013 Jun;14(7):599-608. 

>  <Row>
G

>  <SMILES>
CC(C)(CCCC(CC(=O)OC)(C(=O)OC1C2C3=CC4=C(C=C3CCN5C2(CCC5)C=C1OC)OCO4)O)O

>  <Target>
STAT inhibitor

>  <Weight>
10.3mg

$$$$
Lab-1.sdf
  ChemDraw05232018482D

 28 30  0  0  0  0  0  0  0  0999 V2000
   -0.7145    0.0000    0.0000 C   0  0  0  0  0  0  0  0  0  0  0  0
   -0.7145    0.0000    0.0000 C   0  0  0  0  0  0  0  0  0  0  0  0
   -1.4289    0.0000    0.0000 C   0  0  0  0  0  0  0  0  0  0  0  0
   -2.1434    0.0000    0.0000 C   0  0  0  0  0  0  0  0  0  0  0  0
   -2.1434    0.0000    0.0000 C   0  0  0  0  0  0  0  0  0  0  0  0
   -1.4289    0.0000    0.0000 C   0  0  0  0  0  0  0  0  0  0  0  0
   -1.4289    0.0000    0.0000 C   0  0  0  0  0  0  0  0  0  0  0  0
   -0.7145    0.0000    0.0000 C   0  0  0  0  0  0  0  0  0  0  0  0
   -0.7145    0.0000    0.0000 C   0  0  0  0  0  0  0  0  0  0  0  0
   -1.4289    0.0000    0.0000 C   0  0  0  0  0  0  0  0  0  0  0  0
   -1.4289    0.0000    0.0000 C   0  0  0  0  0  0  0  0  0  0  0  0
   -0.7145    0.0000    0.0000 C   0  0  0  0  0  0  0  0  0  0  0  0
   -0.0000    0.0000    0.0000 C   0  0  0  0  0  0  0  0  0  0  0  0
   -0.0000    0.0000    0.0000 C   0  0  0  0  0  0  0  0  0  0  0  0
    0.7145    0.0000    0.0000 O   0  0  0  0  0  0  0  0  0  0  0  0
    0.7145    0.0000    0.0000 C   0  0  0  0  0  0  0  0  0  0  0  0
   -0.0000    0.0000    0.0000 C   0  0  0  0  0  0  0  0  0  0  0  0
   -0.0000    0.0000    0.0000 C   0  0  0  0  0  0  0  0  0  0  0  0
    0.7145    0.0000    0.0000 C   0  0  0  0  0  0  0  0  0  0  0  0
    1.4289    0.0000    0.0000 C   0  0  0  0  0  0  0  0  0  0  0  0
    1.4289    0.0000    0.0000 O   0  0  0  0  0  0  0  0  0  0  0  0
    2.1434    0.0000    0.0000 C   0  0  0  0  0  0  0  0  0  0  0  0
    2.1434    0.0000    0.0000 O   0  0  0  0  0  0  0  0  0  0  0  0
    0.7145    0.0000    0.0000 O   0  0  0  0  0  0  0  0  0  0  0  0
   -0.7145    0.0000    0.0000 O   0  0  0  0  0  0  0  0  0  0  0  0
   -0.7145    0.0000    0.0000 O   0  0  0  0  0  0  0  0  0  0  0  0
   -2.1434    0.0000    0.0000 O   0  0  0  0  0  0  0  0  0  0  0  0
   -1.4289    0.0000    0.0000 O   0  0  0  0  0  0  0  0  0  0  0  0
  1  2  2  0      
  2  3  1  0      
  3  4  2  0      
  4  5  1  0      
  5  6  2  0      
  1  6  1  0      
  7  6  1  4      
  7  8  2  0      
  8  9  1  0      
  9 10  2  0      
 10 11  1  0      
 11 12  2  0      
 12 13  1  0      
 13 14  2  0      
  9 14  1  0      
 13 15  1  0      
 15 16  1  0      
 16 17  1  0      
 17 18  1  0      
 18 19  1  0      
 19 20  1  0      
 20 21  1  0      
 16 21  1  0      
 20 22  1  0      
 22 23  1  0      
 19 24  1  0      
 18 25  1  0      
 17 26  1  0      
 11 27  1  0      
  3 28  1  0      
M  END
>  <Bioactivity>
Polydatin is the glycoside of Resveratrol (sc-200808) originally isolated from the Chinese herb?Polygonum cuspidatum. The compound has been shown to inhibit platelet aggregation and elevate the ratios
 of LDL-C/HDL-C and TC/HDL-C. Myocardial cell, white blood cell, vascular smooth muscle cell, and endothelial cell studies report that Polydatin can inhibit ICAM-1 expression, elevate Ca2+, weaken whi
te blood cell-endothelial cell adhesion, and activate KATP channels.

>  <CAS>
27208-80-6

>  <Col>
2

>  <Formula>
C20H22O8

>  <ID>
T3427

>  <Index>
711

>  <MOLENAME>
Polydatin

>  <MolWt>
390.39

>  <Pathways>
Others

>  <Plate>
PLATE 009

>  <QR code>
1151480804

>  <Receptor>
ICAM-1

>  <Reference>
1. Ravagnan G, et al. Inflammation. 2013 Feb;36(1):26-34.

>  <Row>
H

>  <SMILES>
C1=CC(=CC=C1C=CC2=CC(=CC(=C2)OC3C(C(C(C(O3)CO)O)O)O)O)O

>  <Target>
ICAM-1 inhibitor

>  <Weight>
10.3mg

$$$$
Lab-1.sdf
  ChemDraw05232018482D

 33 36  0  0  0  0  0  0  0  0999 V2000
   -2.1434    0.0000    0.0000 C   0  0  0  0  0  0  0  0  0  0  0  0
   -1.4289    0.0000    0.0000 N   0  0  0  0  0  0  0  0  0  0  0  0
   -0.7145    0.0000    0.0000 C   0  0  0  0  0  0  0  0  0  0  0  0
   -1.4289    0.0000    0.0000 C   0  0  0  0  0  0  0  0  0  0  0  0
   -0.7145    0.0000    0.0000 C   0  0  0  0  0  0  0  0  0  0  0  0
   -0.0000    0.0000    0.0000 C   0  0  0  0  0  0  0  0  0  0  0  0
   -0.0000    0.0000    0.0000 O   0  0  0  0  0  0  0  0  0  0  0  0
    0.7145    0.0000    0.0000 C   0  0  0  0  0  0  0  0  0  0  0  0
    0.7145    0.0000    0.0000 C   0  0  0  0  0  0  0  0  0  0  0  0
    1.4289    0.0000    0.0000 C   0  0  0  0  0  0  0  0  0  0  0  0
    1.4289    0.0000    0.0000 O   0  0  0  0  0  0  0  0  0  0  0  0
    2.1434    0.0000    0.0000 C   0  0  0  0  0  0  0  0  0  0  0  0
    2.1434    0.0000    0.0000 C   0  0  0  0  0  0  0  0  0  0  0  0
    2.8579    0.0000    0.0000 C   0  0  0  0  0  0  0  0  0  0  0  0
    3.5724    0.0000    0.0000 C   0  0  0  0  0  0  0  0  0  0  0  0
    3.5724    0.0000    0.0000 C   0  0  0  0  0  0  0  0  0  0  0  0
    2.8579    0.0000    0.0000 C   0  0  0  0  0  0  0  0  0  0  0  0
    2.8579    0.0000    0.0000 O   0  0  0  0  0  0  0  0  0  0  0  0
    1.4289    0.0000    0.0000 C   0  0  0  0  0  0  0  0  0  0  0  0
    1.8163    0.0000    0.0000 C   0  0  0  0  0  0  0  0  0  0  0  0
    1.0416    0.0000    0.0000 O   0  0  0  0  0  0  0  0  0  0  0  0
   -0.0000    0.0000    0.0000 C   0  0  0  0  0  0  0  0  0  0  0  0
   -0.0000    0.0000    0.0000 O   0  0  0  0  0  0  0  0  0  0  0  0
   -0.7145    0.0000    0.0000 C   0  0  0  0  0  0  0  0  0  0  0  0
   -0.7145    0.0000    0.0000 O   0  0  0  0  0  0  0  0  0  0  0  0
   -1.4289    0.0000    0.0000 C   0  0  0  0  0  0  0  0  0  0  0  0
   -1.4289    0.0000    0.0000 O   0  0  0  0  0  0  0  0  0  0  0  0
   -2.1434    0.0000    0.0000 C   0  0  0  0  0  0  0  0  0  0  0  0
   -2.8579    0.0000    0.0000 C   0  0  0  0  0  0  0  0  0  0  0  0
   -2.8579    0.0000    0.0000 N   0  0  0  0  0  0  0  0  0  0  0  0
   -3.5724    0.0000    0.0000 O   0  0  0  0  0  0  0  0  0  0  0  0
   -2.1434    0.0000    0.0000 C   0  0  0  0  0  0  0  0  0  0  0  0
   -2.8579    0.0000    0.0000 O   0  0  0  0  0  0  0  0  0  0  0  0
  1  2  1  0      
  2  3  1  0      
  2  4  1  0      
  4  5  1  0      
  5  6  1  0      
  6  7  1  0      
  6  8  1  0      
  8  9  1  0      
  9 10  2  0      
 10 11  1  0      
 10 12  1  0      
 12 13  2  0      
 13 14  1  0      
 14 15  2  0      
 15 16  1  0      
 16 17  2  0      
 12 17  1  0      
 17 18  1  0      
 13 19  1  0      
  8 19  1  0      
 19 20  1  0      
 19 21  1  0      
  9 22  1  0      
 22 23  2  0      
 22 24  1  0      
  5 24  1  0      
 24 25  1  0      
 24 26  1  0      
 26 27  1  0      
 26 28  2  0      
 28 29  1  0      
 29 30  1  0      
 29 31  2  0      
 28 32  1  0      
  4 32  1  0      
 32 33  2  0      
M  END
>  <Bioactivity>
Oxytetracycline (Terramycin) was the second of the broad-spectrum tetracycline group of antibiotics to be discovered.

>  <CAS>
79-57-2

>  <Col>
3

>  <Formula>
C22H24N2O9

>  <ID>
T0895

>  <Index>
712

>  <MOLENAME>
Oxytetracycline (Terramycin)

>  <MolWt>
460.44

>  <Pathways>
Microbiology & Virology

>  <Plate>
PLATE 009

>  <QR code>
1151480805

>  <Receptor>
30S ribosomal protein; 16S ribosomal protein

>  <Reference>
1. Babu E, et al. Jpn J Pharmacol. 2002 Jan;88(1):69-76. 

>  <Row>
H

>  <SMILES>
CN(C)C1C2C(O)C3C(=C(O)C4=C(C=CC=C4O)C3(C)O)C(=O)C2(O)C(O)=C(C(N)=O)C1=O

>  <Target>
Antibiotic

>  <Weight>
10.4mg

$$$$
Lab-1.sdf
  ChemDraw05232018482D

 52 59  0  0  0  0  0  0  0  0999 V2000
    6.0365    0.0000    0.0000 C   0  0  0  0  0  0  0  0  0  0  0  0
    5.2225    0.0000    0.0000 C   0  0  0  0  0  0  0  0  0  0  0  0
    4.6996    0.0000    0.0000 C   0  0  0  0  0  0  0  0  0  0  0  0
    3.8855    0.0000    0.0000 C   0  0  0  0  0  0  0  0  0  0  0  0
    3.5943    0.0000    0.0000 C   0  0  0  0  0  0  0  0  0  0  0  0
    3.0076    0.0000    0.0000 C   0  0  0  0  0  0  0  0  0  0  0  0
    2.2747    0.0000    0.0000 C   0  0  0  0  0  0  0  0  0  0  0  0
    2.4084    0.0000    0.0000 C   0  0  0  0  0  0  0  0  0  0  0  0
    3.2240    0.0000    0.0000 O   0  0  0  0  0  0  0  0  0  0  0  0
    1.6755    0.0000    0.0000 C   0  0  0  0  0  0  0  0  0  0  0  0
    1.0888    0.0000    0.0000 C   0  0  0  0  0  0  0  0  0  0  0  0
    1.4591    0.0000    0.0000 C   0  0  0  0  0  0  0  0  0  0  0  0
    1.0058    0.0000    0.0000 C   0  0  0  0  0  0  0  0  0  0  0  0
    0.1822    0.0000    0.0000 C   0  0  0  0  0  0  0  0  0  0  0  0
   -0.1882    0.0000    0.0000 C   0  0  0  0  0  0  0  0  0  0  0  0
    0.2652    0.0000    0.0000 C   0  0  0  0  0  0  0  0  0  0  0  0
   -0.1052    0.0000    0.0000 C   0  0  0  0  0  0  0  0  0  0  0  0
   -0.9288    0.0000    0.0000 C   0  0  0  0  0  0  0  0  0  0  0  0
   -1.3821    0.0000    0.0000 C   0  0  0  0  0  0  0  0  0  0  0  0
   -1.0118    0.0000    0.0000 C   0  0  0  0  0  0  0  0  0  0  0  0
   -1.4651    0.0000    0.0000 C   0  0  0  0  0  0  0  0  0  0  0  0
   -2.2888    0.0000    0.0000 C   0  0  0  0  0  0  0  0  0  0  0  0
   -2.6590    0.0000    0.0000 C   0  0  0  0  0  0  0  0  0  0  0  0
   -2.2057    0.0000    0.0000 C   0  0  0  0  0  0  0  0  0  0  0  0
   -3.4826    0.0000    0.0000 O   0  0  0  0  0  0  0  0  0  0  0  0
   -3.8529    0.0000    0.0000 C   0  0  0  0  0  0  0  0  0  0  0  0
   -4.6765    0.0000    0.0000 C   0  0  0  0  0  0  0  0  0  0  0  0
   -5.0468    0.0000    0.0000 C   0  0  0  0  0  0  0  0  0  0  0  0
   -4.5935    0.0000    0.0000 C   0  0  0  0  0  0  0  0  0  0  0  0
   -3.7699    0.0000    0.0000 C   0  0  0  0  0  0  0  0  0  0  0  0
   -3.3996    0.0000    0.0000 O   0  0  0  0  0  0  0  0  0  0  0  0
   -3.3166    0.0000    0.0000 C   0  0  0  0  0  0  0  0  0  0  0  0
   -3.6869    0.0000    0.0000 O   0  0  0  0  0  0  0  0  0  0  0  0
   -4.9638    0.0000    0.0000 O   0  0  0  0  0  0  0  0  0  0  0  0
   -5.8704    0.0000    0.0000 O   0  0  0  0  0  0  0  0  0  0  0  0
   -5.1299    0.0000    0.0000 O   0  0  0  0  0  0  0  0  0  0  0  0
   -4.7596    0.0000    0.0000 C   0  0  0  0  0  0  0  0  0  0  0  0
   -5.2129    0.0000    0.0000 C   0  0  0  0  0  0  0  0  0  0  0  0
   -4.8426    0.0000    0.0000 C   0  0  0  0  0  0  0  0  0  0  0  0
   -4.0190    0.0000    0.0000 C   0  0  0  0  0  0  0  0  0  0  0  0
   -3.5657    0.0000    0.0000 C   0  0  0  0  0  0  0  0  0  0  0  0
   -3.9360    0.0000    0.0000 O   0  0  0  0  0  0  0  0  0  0  0  0
   -2.7421    0.0000    0.0000 C   0  0  0  0  0  0  0  0  0  0  0  0
   -2.3718    0.0000    0.0000 O   0  0  0  0  0  0  0  0  0  0  0  0
   -3.6487    0.0000    0.0000 O   0  0  0  0  0  0  0  0  0  0  0  0
   -5.2959    0.0000    0.0000 O   0  0  0  0  0  0  0  0  0  0  0  0
   -6.0365    0.0000    0.0000 O   0  0  0  0  0  0  0  0  0  0  0  0
   -0.6415    0.0000    0.0000 C   0  0  0  0  0  0  0  0  0  0  0  0
    1.9044    0.0000    0.0000 C   0  0  0  0  0  0  0  0  0  0  0  0
    3.1319    0.0000    0.0000 C   0  0  0  0  0  0  0  0  0  0  0  0
    4.1172    0.0000    0.0000 O   0  0  0  0  0  0  0  0  0  0  0  0
    4.9313    0.0000    0.0000 C   0  0  0  0  0  0  0  0  0  0  0  0
  1  2  1  0      
  2  3  1  0      
  3  4  1  0      
  4  5  1  0      
  5  6  1  0      
  6  7  1  0      
  7  8  1  0      
  8  9  1  0      
  5  9  1  0      
  8 10  1  0      
 10 11  1  0      
 11 12  1  0      
  7 12  1  0      
 12 13  1  0      
 13 14  1  0      
 14 15  1  0      
 15 16  1  0      
 11 16  1  0      
 16 17  1  0      
 17 18  1  0      
 18 19  1  0      
 19 20  1  0      
 15 20  1  0      
 20 21  1  0      
 21 22  1  0      
 22 23  1  0      
 23 24  1  0      
 19 24  1  0      
 23 25  1  0      
 25 26  1  0      
 26 27  1  0      
 27 28  1  0      
 28 29  1  0      
 29 30  1  0      
 30 31  1  0      
 26 31  1  0      
 30 32  1  0      
 32 33  1  0      
 29 34  1  0      
 28 35  1  0      
 27 36  1  0      
 36 37  1  0      
 37 38  1  0      
 38 39  1  0      
 39 40  1  0      
 40 41  1  0      
 41 42  1  0      
 37 42  1  0      
 41 43  1  0      
 43 44  1  0      
 40 45  1  0      
 39 46  1  0      
 38 47  1  0      
 20 48  1  0      
 12 49  1  0      
  6 50  1  0      
  5 51  1  0      
 51 52  1  0      
  2 52  1  0      
M  END
>  <Bioactivity>
Timosaponin AIII induces autophagy in HeLa cells followed by apoptotic cell death (IC50=10¦ÌM). The Timosaponin AIII cellular response has been found to be mediated via inhibition of mTORC1 and induct
ion of ER stress (IC50 for BT474 cells=2.5?M and MDAMB231 cells=6?M). The Timosaponin AIII pro-apoptotic response is selective for tumor cells over normal cells but autophagy is induced in both.

>  <CAS>
41059-79-4

>  <Col>
4

>  <Formula>
C39H64O13

>  <ID>
T3395

>  <Index>
713

>  <MOLENAME>
Timosaponin AIII

>  <MolWt>
740.92

>  <Pathways>
PI3K/Akt/mTOR Signaling;  Angiogenesis; JAK/STAT signaling

>  <Plate>
PLATE 009

>  <QR code>
1151480806

>  <Receptor>
mTORC1

>  <Reference>
1. Wu ZT, et al. Acta Pharmacol Sin. 2014 Sep;35(9):1188-98.

>  <Row>
H

>  <SMILES>
CC1CCC2(C(C3C(O2)CC4C3(CCC5C4CCC6C5(CCC(C6)OC7C(C(C(C(O7)CO)O)O)OC8C(C(C(C(O8)CO)O)O)O)C)C)C)OC1

>  <Target>
mTOR inhibitor; 

>  <Weight>
10.2mg

$$$$
Lab-1.sdf
  ChemDraw05232018482D

 34 38  0  0  0  0  0  0  0  0999 V2000
   -3.7125    0.0000    0.0000 C   0  0  0  0  0  0  0  0  0  0  0  0
   -3.3000    0.0000    0.0000 C   0  0  0  0  0  0  0  0  0  0  0  0
   -3.7125    0.0000    0.0000 C   0  0  0  0  0  0  0  0  0  0  0  0
   -3.3000    0.0000    0.0000 C   0  0  0  0  0  0  0  0  0  0  0  0
   -2.4750    0.0000    0.0000 C   0  0  0  0  0  0  0  0  0  0  0  0
   -2.0625    0.0000    0.0000 C   0  0  0  0  0  0  0  0  0  0  0  0
   -1.2375    0.0000    0.0000 C   0  0  0  0  0  0  0  0  0  0  0  0
   -0.8250    0.0000    0.0000 C   0  0  0  0  0  0  0  0  0  0  0  0
   -1.2375    0.0000    0.0000 C   0  0  0  0  0  0  0  0  0  0  0  0
   -0.8250    0.0000    0.0000 C   0  0  0  0  0  0  0  0  0  0  0  0
   -0.0000    0.0000    0.0000 C   0  0  0  0  0  0  0  0  0  0  0  0
    0.4125    0.0000    0.0000 C   0  0  0  0  0  0  0  0  0  0  0  0
   -0.0000    0.0000    0.0000 C   0  0  0  0  0  0  0  0  0  0  0  0
    0.4125    0.0000    0.0000 C   0  0  0  0  0  0  0  0  0  0  0  0
    1.2375    0.0000    0.0000 C   0  0  0  0  0  0  0  0  0  0  0  0
    1.6500    0.0000    0.0000 C   0  0  0  0  0  0  0  0  0  0  0  0
    1.2375    0.0000    0.0000 C   0  0  0  0  0  0  0  0  0  0  0  0
    1.6500    0.0000    0.0000 C   0  0  0  0  0  0  0  0  0  0  0  0
    2.4750    0.0000    0.0000 C   0  0  0  0  0  0  0  0  0  0  0  0
    2.8875    0.0000    0.0000 C   0  0  0  0  0  0  0  0  0  0  0  0
    2.4750    0.0000    0.0000 C   0  0  0  0  0  0  0  0  0  0  0  0
    3.1747    0.0000    0.0000 C   0  0  0  0  0  0  0  0  0  0  0  0
    2.5038    0.0000    0.0000 C   0  0  0  0  0  0  0  0  0  0  0  0
    3.7125    0.0000    0.0000 O   0  0  0  0  0  0  0  0  0  0  0  0
    2.8875    0.0000    0.0000 O   0  0  0  0  0  0  0  0  0  0  0  0
    0.8250    0.0000    0.0000 C   0  0  0  0  0  0  0  0  0  0  0  0
   -0.4125    0.0000    0.0000 C   0  0  0  0  0  0  0  0  0  0  0  0
   -2.0625    0.0000    0.0000 C   0  0  0  0  0  0  0  0  0  0  0  0
   -2.4750    0.0000    0.0000 C   0  0  0  0  0  0  0  0  0  0  0  0
   -2.0625    0.0000    0.0000 C   0  0  0  0  0  0  0  0  0  0  0  0
   -0.9112    0.0000    0.0000 C   0  0  0  0  0  0  0  0  0  0  0  0
   -2.8875    0.0000    0.0000 C   0  0  0  0  0  0  0  0  0  0  0  0
   -2.4750    0.0000    0.0000 O   0  0  0  0  0  0  0  0  0  0  0  0
   -3.7125    0.0000    0.0000 O   0  0  0  0  0  0  0  0  0  0  0  0
  1  2  1  0      
  2  3  1  0      
  3  4  1  0      
  4  5  1  0      
  5  6  1  0      
  6  7  1  0      
  7  8  1  0      
  8  9  1  0      
  9 10  2  0      
 10 11  1  0      
 11 12  1  0      
 12 13  1  0      
  8 13  1  0      
 13 14  1  0      
 14 15  1  0      
 15 16  1  0      
 16 17  1  0      
 12 17  1  0      
 17 18  1  0      
 18 19  1  0      
 19 20  1  0      
 20 21  1  0      
 16 21  1  0      
 21 22  1  0      
 21 23  1  0      
 20 24  1  0      
 19 25  1  0      
 17 26  1  0      
 13 27  1  0      
  9 28  1  0      
  5 28  1  0      
 28 29  1  0      
  2 29  1  0      
 29 30  1  0      
  8 31  1  0      
  5 32  1  0      
 32 33  2  0      
 32 34  1  0      
M  END
>  <Bioactivity>
Corosolic acid contains anti-angiogenic activity that can suppress FAK signaling induced by angiopoietin-1. Corosolic acid exerts antiY activities against HCC, colon ,and colorectal Y cells, by induci
ng apoptosis and promoting the N-terminal phosphorylation and subsequent proteasomal degradation of ¦Â-catenin.

>  <CAS>
4547-24-4

>  <Col>
5

>  <Formula>
C30H48O4

>  <ID>
T3391

>  <Index>
714

>  <MOLENAME>
Corosolic acid

>  <MolWt>
472.7

>  <Pathways>
Angiogenesis; Apoptosis

>  <Plate>
PLATE 009

>  <QR code>
1151480807

>  <Receptor>
FAK

>  <Reference>
1. Yoo KH, et al. Phytother Res. 2015 May;29(5):714-23.

>  <Row>
H

>  <SMILES>
CC1CCC2(CCC3(C(=CCC4C3(CCC5C4(CC(C(C5(C)C)O)O)C)C)C2C1C)C)C(=O)O

>  <Target>
FAK inhibitor; 

>  <Weight>
10.3mg

$$$$
Lab-1.sdf
  ChemDraw05232018482D

 24 26  0  0  0  0  0  0  0  0999 V2000
   -0.1485    0.0000    0.0000 C   0  0  0  0  0  0  0  0  0  0  0  0
    0.5660    0.0000    0.0000 C   0  0  0  0  0  0  0  0  0  0  0  0
    0.5660    0.0000    0.0000 O   0  0  0  0  0  0  0  0  0  0  0  0
   -0.1485    0.0000    0.0000 C   0  0  0  0  0  0  0  0  0  0  0  0
   -0.8629    0.0000    0.0000 C   0  0  0  0  0  0  0  0  0  0  0  0
   -0.8629    0.0000    0.0000 C   0  0  0  0  0  0  0  0  0  0  0  0
   -1.6475    0.0000    0.0000 C   0  0  0  0  0  0  0  0  0  0  0  0
   -2.1324    0.0000    0.0000 C   0  0  0  0  0  0  0  0  0  0  0  0
   -1.6475    0.0000    0.0000 C   0  0  0  0  0  0  0  0  0  0  0  0
   -1.9024    0.0000    0.0000 C   0  0  0  0  0  0  0  0  0  0  0  0
   -2.7094    0.0000    0.0000 O   0  0  0  0  0  0  0  0  0  0  0  0
   -1.9024    0.0000    0.0000 O   0  0  0  0  0  0  0  0  0  0  0  0
   -0.1485    0.0000    0.0000 O   0  0  0  0  0  0  0  0  0  0  0  0
    0.5660    0.0000    0.0000 C   0  0  0  0  0  0  0  0  0  0  0  0
    1.2805    0.0000    0.0000 C   0  0  0  0  0  0  0  0  0  0  0  0
    1.9949    0.0000    0.0000 C   0  0  0  0  0  0  0  0  0  0  0  0
    1.9949    0.0000    0.0000 C   0  0  0  0  0  0  0  0  0  0  0  0
    1.2805    0.0000    0.0000 C   0  0  0  0  0  0  0  0  0  0  0  0
    0.5660    0.0000    0.0000 O   0  0  0  0  0  0  0  0  0  0  0  0
    1.2805    0.0000    0.0000 C   0  0  0  0  0  0  0  0  0  0  0  0
    1.9949    0.0000    0.0000 O   0  0  0  0  0  0  0  0  0  0  0  0
    2.7094    0.0000    0.0000 O   0  0  0  0  0  0  0  0  0  0  0  0
    2.7094    0.0000    0.0000 O   0  0  0  0  0  0  0  0  0  0  0  0
    1.2805    0.0000    0.0000 O   0  0  0  0  0  0  0  0  0  0  0  0
  1  2  2  0      
  2  3  1  0      
  3  4  1  0      
  4  5  1  0      
  5  6  1  0      
  1  6  1  0      
  6  7  1  0      
  7  8  1  0      
  8  9  2  0      
  5  9  1  0      
  9 10  1  0      
 10 11  1  0      
  7 12  1  0      
  4 13  1  0      
 13 14  1  0      
 14 15  1  0      
 15 16  1  0      
 16 17  1  0      
 17 18  1  0      
 18 19  1  0      
 14 19  1  0      
 18 20  1  0      
 20 21  1  0      
 17 22  1  0      
 16 23  1  0      
 15 24  1  0      
M  END
>  <Bioactivity>
Aucubin is an iridoid glycoside with a wide range of biological activities, including anti-inflammatory, anti-microbial, anti-algesic as well as anti-tumor activities.

>  <CAS>
479-98-1

>  <Col>
6

>  <Formula>
C15H22O9

>  <ID>
T3416

>  <Index>
715

>  <MOLENAME>
Aucubin

>  <MolWt>
346.33

>  <Pathways>
Immunology/Inflammation

>  <Plate>
PLATE 009

>  <QR code>
1151480808

>  <Receptor>
IL-1¦Â;  NF-¦ÊB; 

>  <Reference>
1. Wang SN, et al. Int Immunopharmacol. 2015 Feb;24(2):408-15.

>  <Row>
H

>  <SMILES>
C1=COC(C2C1C(C=C2CO)O)OC3C(C(C(C(O3)CO)O)O)O

>  <Target>
IL; NF-¦ÊB; 

>  <Weight>
10.4mg

$$$$
Lab-1.sdf
  ChemDraw05232018482D

 41 45  0  0  0  0  0  0  0  0999 V2000
   -3.2151    0.0000    0.0000 C   0  0  0  0  0  0  0  0  0  0  0  0
   -3.2151    0.0000    0.0000 C   0  0  0  0  0  0  0  0  0  0  0  0
   -3.9296    0.0000    0.0000 C   0  0  0  0  0  0  0  0  0  0  0  0
   -3.9296    0.0000    0.0000 C   0  0  0  0  0  0  0  0  0  0  0  0
   -3.2151    0.0000    0.0000 C   0  0  0  0  0  0  0  0  0  0  0  0
   -2.5006    0.0000    0.0000 C   0  0  0  0  0  0  0  0  0  0  0  0
   -2.5006    0.0000    0.0000 O   0  0  0  0  0  0  0  0  0  0  0  0
   -1.7861    0.0000    0.0000 O   0  0  0  0  0  0  0  0  0  0  0  0
   -1.0717    0.0000    0.0000 C   0  0  0  0  0  0  0  0  0  0  0  0
   -1.0717    0.0000    0.0000 C   0  0  0  0  0  0  0  0  0  0  0  0
   -0.3573    0.0000    0.0000 C   0  0  0  0  0  0  0  0  0  0  0  0
    0.3573    0.0000    0.0000 C   0  0  0  0  0  0  0  0  0  0  0  0
    0.3573    0.0000    0.0000 C   0  0  0  0  0  0  0  0  0  0  0  0
   -0.3573    0.0000    0.0000 C   0  0  0  0  0  0  0  0  0  0  0  0
    1.0716    0.0000    0.0000 O   0  0  0  0  0  0  0  0  0  0  0  0
    1.7861    0.0000    0.0000 C   0  0  0  0  0  0  0  0  0  0  0  0
    1.7861    0.0000    0.0000 C   0  0  0  0  0  0  0  0  0  0  0  0
    1.0716    0.0000    0.0000 C   0  0  0  0  0  0  0  0  0  0  0  0
    1.0716    0.0000    0.0000 O   0  0  0  0  0  0  0  0  0  0  0  0
    2.5006    0.0000    0.0000 O   0  0  0  0  0  0  0  0  0  0  0  0
    2.5006    0.0000    0.0000 C   0  0  0  0  0  0  0  0  0  0  0  0
    3.2151    0.0000    0.0000 C   0  0  0  0  0  0  0  0  0  0  0  0
    3.2151    0.0000    0.0000 C   0  0  0  0  0  0  0  0  0  0  0  0
    2.5006    0.0000    0.0000 C   0  0  0  0  0  0  0  0  0  0  0  0
    1.7861    0.0000    0.0000 C   0  0  0  0  0  0  0  0  0  0  0  0
    1.7861    0.0000    0.0000 O   0  0  0  0  0  0  0  0  0  0  0  0
    1.0716    0.0000    0.0000 C   0  0  0  0  0  0  0  0  0  0  0  0
    2.5006    0.0000    0.0000 O   0  0  0  0  0  0  0  0  0  0  0  0
    3.9295    0.0000    0.0000 O   0  0  0  0  0  0  0  0  0  0  0  0
    3.9295    0.0000    0.0000 O   0  0  0  0  0  0  0  0  0  0  0  0
    2.5006    0.0000    0.0000 C   0  0  0  0  0  0  0  0  0  0  0  0
    2.5006    0.0000    0.0000 C   0  0  0  0  0  0  0  0  0  0  0  0
    3.2151    0.0000    0.0000 C   0  0  0  0  0  0  0  0  0  0  0  0
    3.9295    0.0000    0.0000 C   0  0  0  0  0  0  0  0  0  0  0  0
    3.9295    0.0000    0.0000 C   0  0  0  0  0  0  0  0  0  0  0  0
    3.2151    0.0000    0.0000 C   0  0  0  0  0  0  0  0  0  0  0  0
    4.6440    0.0000    0.0000 O   0  0  0  0  0  0  0  0  0  0  0  0
   -0.3573    0.0000    0.0000 O   0  0  0  0  0  0  0  0  0  0  0  0
   -3.2151    0.0000    0.0000 O   0  0  0  0  0  0  0  0  0  0  0  0
   -4.6440    0.0000    0.0000 O   0  0  0  0  0  0  0  0  0  0  0  0
   -4.6440    0.0000    0.0000 O   0  0  0  0  0  0  0  0  0  0  0  0
  1  2  1  0      
  2  3  1  0      
  3  4  1  0      
  4  5  1  0      
  5  6  1  0      
  6  7  1  0      
  2  7  1  0      
  6  8  1  0      
  8  9  1  0      
  9 10  2  0      
 10 11  1  0      
 11 12  2  0      
 12 13  1  0      
 13 14  2  0      
  9 14  1  0      
 13 15  1  0      
 15 16  1  0      
 16 17  2  0      
 17 18  1  0      
 12 18  1  0      
 18 19  2  0      
 17 20  1  0      
 20 21  1  0      
 21 22  1  0      
 22 23  1  0      
 23 24  1  0      
 24 25  1  0      
 25 26  1  0      
 21 26  1  0      
 25 27  1  0      
 24 28  1  0      
 23 29  1  0      
 22 30  1  0      
 16 31  1  0      
 31 32  2  0      
 32 33  1  0      
 33 34  2  0      
 34 35  1  0      
 35 36  2  0      
 31 36  1  0      
 34 37  1  0      
 11 38  1  0      
  5 39  1  0      
  4 40  1  0      
  3 41  1  0      
M  END
>  <Bioactivity>
 Kaempferitrin exerts cytotoxic and antitumor effects against HeLa cells. Kaempferitrin stimulates glucose-metabolizing enzymes, promotes glucose homeostasis. Kaempferitrin has antidepressant-like eff
ect related to the serotonergic system, principally 5-HT1A.  Kaempferitrin exerts immunostimulatory effects on immune responses mediated by splenocytes, macrophages, PBMC and NK cells. Kaempferitrin i
nduces cytotoxic effects include: cell cycle arrest in G1 phase and apoptosis via intrinsic pathway in a caspase dependent pathway. 

>  <CAS>
482-38-2

>  <Col>
7

>  <Formula>
C27H30O14

>  <ID>
T3386

>  <Index>
716

>  <MOLENAME>
Kaempferitrin

>  <MolWt>
578.5

>  <Pathways>
Cell cycle/ Checkpoint

>  <Plate>
PLATE 009

>  <QR code>
1151480809

>  <Receptor>
PFK;  cell cycle arrest

>  <Reference>
1. Da Silva D, et al. IUBMB Life. 2014 May;66(5):361-70.

>  <Row>
H

>  <SMILES>
CC1C(C(C(C(O1)OC2=CC(=C3C(=C2)OC(=C(C3=O)OC4C(C(C(C(O4)C)O)O)O)C5=CC=C(C=C5)O)O)O)O)O

>  <Target>
PFK;  cell cycle arrest

>  <Weight>
10.2mg

$$$$
Lab-1.sdf
  ChemDraw05232018482D

 23 26  0  0  0  0  0  0  0  0999 V2000
    3.5569    0.0000    0.0000 C   0  0  0  0  0  0  0  0  0  0  0  0
    3.1860    0.0000    0.0000 O   0  0  0  0  0  0  0  0  0  0  0  0
    2.3623    0.0000    0.0000 C   0  0  0  0  0  0  0  0  0  0  0  0
    1.9913    0.0000    0.0000 C   0  0  0  0  0  0  0  0  0  0  0  0
    1.1677    0.0000    0.0000 C   0  0  0  0  0  0  0  0  0  0  0  0
    0.7150    0.0000    0.0000 C   0  0  0  0  0  0  0  0  0  0  0  0
    1.0860    0.0000    0.0000 C   0  0  0  0  0  0  0  0  0  0  0  0
    1.9096    0.0000    0.0000 C   0  0  0  0  0  0  0  0  0  0  0  0
    0.6333    0.0000    0.0000 O   0  0  0  0  0  0  0  0  0  0  0  0
   -0.1902    0.0000    0.0000 C   0  0  0  0  0  0  0  0  0  0  0  0
   -0.6429    0.0000    0.0000 O   0  0  0  0  0  0  0  0  0  0  0  0
   -0.5612    0.0000    0.0000 C   0  0  0  0  0  0  0  0  0  0  0  0
   -0.1086    0.0000    0.0000 C   0  0  0  0  0  0  0  0  0  0  0  0
   -0.6247    0.0000    0.0000 O   0  0  0  0  0  0  0  0  0  0  0  0
   -1.3963    0.0000    0.0000 C   0  0  0  0  0  0  0  0  0  0  0  0
   -2.1295    0.0000    0.0000 C   0  0  0  0  0  0  0  0  0  0  0  0
   -2.8236    0.0000    0.0000 C   0  0  0  0  0  0  0  0  0  0  0  0
   -2.7844    0.0000    0.0000 C   0  0  0  0  0  0  0  0  0  0  0  0
   -2.0511    0.0000    0.0000 C   0  0  0  0  0  0  0  0  0  0  0  0
   -1.3571    0.0000    0.0000 C   0  0  0  0  0  0  0  0  0  0  0  0
   -3.4784    0.0000    0.0000 O   0  0  0  0  0  0  0  0  0  0  0  0
   -3.5569    0.0000    0.0000 O   0  0  0  0  0  0  0  0  0  0  0  0
    0.7967    0.0000    0.0000 O   0  0  0  0  0  0  0  0  0  0  0  0
  1  2  1  0      
  2  3  1  0      
  3  4  2  0      
  4  5  1  0      
  5  6  2  0      
  6  7  1  0      
  7  8  2  0      
  3  8  1  0      
  7  9  1  0      
  9 10  1  0      
 10 11  2  0      
 10 12  1  0      
 12 13  2  0      
  6 13  1  0      
 13 14  1  0      
 14 15  1  0      
 15 16  2  0      
 16 17  1  0      
 17 18  2  0      
 18 19  1  0      
 19 20  2  0      
 15 20  1  0      
 12 20  1  0      
 18 21  1  0      
 17 22  1  0      
  5 23  1  0      
M  END
>  <Bioactivity>
Wedelolactone inhibits adipogenic differentiation through ERK pathway, may be a novel inhibitory effect on adipogenic differentiation in hAMSCs.2. Wedelolactone is an anti-Y agent for breast and pros
tate carcinomas in vitro and in vivo targeting multiple cellular proteins including androgen receptors, 5-lipoxygenase and topoisomerase II¦Á.3. Wedelolactone could significantly inhibit the activati
on of LX-2 cells, the underlying mechanisms of which included inducing Bcl-2 family involved apoptosis, up-regulating phosphorylated status of ERK and JNK expressions, and inhibiting nuclear factor-¦Ê
B (NF-¦ÊB) mediated activity.

>  <CAS>
524-12-9

>  <Col>
8

>  <Formula>
C16H10O7

>  <ID>
T3384

>  <Index>
717

>  <MOLENAME>
Wedelolactone

>  <MolWt>
314.3

>  <Pathways>
ERK; apoptosis

>  <Plate>
PLATE 009

>  <QR code>
1151480810

>  <Receptor>
NF-¦ÊB

>  <Reference>
1. Nehybov¨¢ T, et al. Wedelolactone Acts as Proteasome Inhibitor in Breast Cancer Cells. Int J Mol Sci. 2017 Mar 29;18(4).

>  <Row>
H

>  <SMILES>
COC1=CC(=C2C(=C1)OC(=O)C3=C2OC4=CC(=C(C=C43)O)O)O

>  <Target>
NF-¦ÊB inhibitor;

>  <Weight>
10.1mg

$$$$
Lab-1.sdf
  ChemDraw05232018482D

 45 49  0  0  0  0  0  0  0  0999 V2000
    4.5163    0.0000    0.0000 C   0  0  0  0  0  0  0  0  0  0  0  0
    3.6933    0.0000    0.0000 C   0  0  0  0  0  0  0  0  0  0  0  0
    3.2304    0.0000    0.0000 C   0  0  0  0  0  0  0  0  0  0  0  0
    2.4075    0.0000    0.0000 C   0  0  0  0  0  0  0  0  0  0  0  0
    1.9445    0.0000    0.0000 C   0  0  0  0  0  0  0  0  0  0  0  0
    1.1217    0.0000    0.0000 C   0  0  0  0  0  0  0  0  0  0  0  0
    0.2988    0.0000    0.0000 C   0  0  0  0  0  0  0  0  0  0  0  0
    1.1812    0.0000    0.0000 C   0  0  0  0  0  0  0  0  0  0  0  0
    1.4105    0.0000    0.0000 C   0  0  0  0  0  0  0  0  0  0  0  0
    0.7277    0.0000    0.0000 C   0  0  0  0  0  0  0  0  0  0  0  0
    0.0763    0.0000    0.0000 C   0  0  0  0  0  0  0  0  0  0  0  0
    0.3566    0.0000    0.0000 C   0  0  0  0  0  0  0  0  0  0  0  0
   -0.1753    0.0000    0.0000 C   0  0  0  0  0  0  0  0  0  0  0  0
   -0.9874    0.0000    0.0000 C   0  0  0  0  0  0  0  0  0  0  0  0
   -1.2677    0.0000    0.0000 C   0  0  0  0  0  0  0  0  0  0  0  0
   -0.7359    0.0000    0.0000 C   0  0  0  0  0  0  0  0  0  0  0  0
   -1.0162    0.0000    0.0000 C   0  0  0  0  0  0  0  0  0  0  0  0
   -1.8283    0.0000    0.0000 C   0  0  0  0  0  0  0  0  0  0  0  0
   -2.3601    0.0000    0.0000 C   0  0  0  0  0  0  0  0  0  0  0  0
   -2.0798    0.0000    0.0000 C   0  0  0  0  0  0  0  0  0  0  0  0
   -2.6116    0.0000    0.0000 C   0  0  0  0  0  0  0  0  0  0  0  0
   -3.4237    0.0000    0.0000 C   0  0  0  0  0  0  0  0  0  0  0  0
   -3.7040    0.0000    0.0000 C   0  0  0  0  0  0  0  0  0  0  0  0
   -3.1722    0.0000    0.0000 C   0  0  0  0  0  0  0  0  0  0  0  0
   -3.7840    0.0000    0.0000 C   0  0  0  0  0  0  0  0  0  0  0  0
   -3.0554    0.0000    0.0000 C   0  0  0  0  0  0  0  0  0  0  0  0
   -4.5163    0.0000    0.0000 O   0  0  0  0  0  0  0  0  0  0  0  0
   -1.7995    0.0000    0.0000 C   0  0  0  0  0  0  0  0  0  0  0  0
   -2.1086    0.0000    0.0000 O   0  0  0  0  0  0  0  0  0  0  0  0
    0.1051    0.0000    0.0000 O   0  0  0  0  0  0  0  0  0  0  0  0
   -0.1214    0.0000    0.0000 C   0  0  0  0  0  0  0  0  0  0  0  0
    1.9933    0.0000    0.0000 C   0  0  0  0  0  0  0  0  0  0  0  0
    1.0622    0.0000    0.0000 O   0  0  0  0  0  0  0  0  0  0  0  0
    1.7450    0.0000    0.0000 C   0  0  0  0  0  0  0  0  0  0  0  0
    2.4874    0.0000    0.0000 C   0  0  0  0  0  0  0  0  0  0  0  0
    3.1702    0.0000    0.0000 C   0  0  0  0  0  0  0  0  0  0  0  0
    3.1107    0.0000    0.0000 C   0  0  0  0  0  0  0  0  0  0  0  0
    2.3683    0.0000    0.0000 C   0  0  0  0  0  0  0  0  0  0  0  0
    1.6855    0.0000    0.0000 O   0  0  0  0  0  0  0  0  0  0  0  0
    2.3088    0.0000    0.0000 C   0  0  0  0  0  0  0  0  0  0  0  0
    2.9916    0.0000    0.0000 O   0  0  0  0  0  0  0  0  0  0  0  0
    3.7935    0.0000    0.0000 O   0  0  0  0  0  0  0  0  0  0  0  0
    3.9127    0.0000    0.0000 O   0  0  0  0  0  0  0  0  0  0  0  0
    2.5469    0.0000    0.0000 O   0  0  0  0  0  0  0  0  0  0  0  0
    3.3335    0.0000    0.0000 C   0  0  0  0  0  0  0  0  0  0  0  0
  1  2  1  0      
  2  3  2  0      
  3  4  1  0      
  4  5  1  0      
  5  6  1  0      
  6  7  1  0      
  6  8  1  0      
  8  9  1  0      
  9 10  1  0      
 10 11  1  0      
 11 12  1  0      
  8 12  1  0      
 12 13  1  0      
 13 14  1  0      
 14 15  1  0      
 15 16  1  0      
 11 16  1  0      
 16 17  1  0      
 17 18  1  0      
 18 19  1  0      
 19 20  1  0      
 15 20  1  0      
 20 21  1  0      
 21 22  1  0      
 22 23  1  0      
 23 24  1  0      
 19 24  1  0      
 24 25  1  0      
 24 26  1  0      
 23 27  1  0      
 20 28  1  0      
 18 29  1  0      
 13 30  1  0      
 11 31  1  0      
  8 32  1  0      
  6 33  1  0      
 33 34  1  0      
 34 35  1  0      
 35 36  1  0      
 36 37  1  0      
 37 38  1  0      
 38 39  1  0      
 34 39  1  0      
 38 40  1  0      
 40 41  1  0      
 37 42  1  0      
 36 43  1  0      
 35 44  1  0      
  2 45  1  0      
M  END
>  <Bioactivity>
Ginsenoside F1,an enzymatically modified derivative of ginsenoside Rg1, protection from ultraviolet-B-induced apoptosis is tightly correlated with ginsenoside-F1-mediated inhibition of ultraviolet-B-i
nduced downregulation of Bcl-2 and Brn-3a expression. Ginsenoside F1 exhibited competitive inhibition of the activity of CYP3A4 with Ki values of 57.7 ¡À 9.6 ¦ÌM and 67.8 ¡À 16.2 ¦ÌM, respectively. Gi
nsenoside F1 exhibited a weaker inhibition of the activity of CYP2D6.

>  <CAS>
53963-43-2

>  <Col>
9

>  <Formula>
C36H62O9

>  <ID>
T3401

>  <Index>
718

>  <MOLENAME>
Ginsenoside F1

>  <MolWt>
638.88

>  <Pathways>
Metabolism

>  <Plate>
PLATE 009

>  <QR code>
1151480811

>  <Receptor>
CYP3A4

>  <Reference>
1. Kim JH, et al. Exp Dermatol. 2015 Feb;24(2):150-2.  

>  <Row>
H

>  <SMILES>
CC(=CCCC(C)(C1(CCC2(C1C(CC3C2CC(C4C3(CCC(C4(C)C)O)C)O)O)C)C)OC5C(C(C(C(O5)CO)O)O)O)C

>  <Target>
CYP inhibitor

>  <Weight>
10.4mg

$$$$
Lab-1.sdf
  ChemDraw05232018482D

 40 43  0  0  0  0  0  0  0  0999 V2000
    5.4960    0.0000    0.0000 C   0  0  0  0  0  0  0  0  0  0  0  0
    4.6788    0.0000    0.0000 C   0  0  0  0  0  0  0  0  0  0  0  0
    4.3679    0.0000    0.0000 O   0  0  0  0  0  0  0  0  0  0  0  0
    4.1723    0.0000    0.0000 O   0  0  0  0  0  0  0  0  0  0  0  0
    3.3551    0.0000    0.0000 C   0  0  0  0  0  0  0  0  0  0  0  0
    3.2422    0.0000    0.0000 C   0  0  0  0  0  0  0  0  0  0  0  0
    3.4679    0.0000    0.0000 C   0  0  0  0  0  0  0  0  0  0  0  0
    2.5378    0.0000    0.0000 C   0  0  0  0  0  0  0  0  0  0  0  0
    2.0315    0.0000    0.0000 C   0  0  0  0  0  0  0  0  0  0  0  0
    1.2142    0.0000    0.0000 C   0  0  0  0  0  0  0  0  0  0  0  0
    0.9033    0.0000    0.0000 O   0  0  0  0  0  0  0  0  0  0  0  0
    0.7079    0.0000    0.0000 C   0  0  0  0  0  0  0  0  0  0  0  0
    1.3592    0.0000    0.0000 C   0  0  0  0  0  0  0  0  0  0  0  0
    0.2015    0.0000    0.0000 C   0  0  0  0  0  0  0  0  0  0  0  0
    0.4308    0.0000    0.0000 C   0  0  0  0  0  0  0  0  0  0  0  0
   -0.2521    0.0000    0.0000 C   0  0  0  0  0  0  0  0  0  0  0  0
   -0.9035    0.0000    0.0000 C   0  0  0  0  0  0  0  0  0  0  0  0
   -0.6232    0.0000    0.0000 C   0  0  0  0  0  0  0  0  0  0  0  0
   -1.1550    0.0000    0.0000 C   0  0  0  0  0  0  0  0  0  0  0  0
   -1.9671    0.0000    0.0000 C   0  0  0  0  0  0  0  0  0  0  0  0
   -2.4989    0.0000    0.0000 O   0  0  0  0  0  0  0  0  0  0  0  0
   -2.2474    0.0000    0.0000 C   0  0  0  0  0  0  0  0  0  0  0  0
   -1.7156    0.0000    0.0000 C   0  0  0  0  0  0  0  0  0  0  0  0
   -1.9959    0.0000    0.0000 C   0  0  0  0  0  0  0  0  0  0  0  0
   -2.8080    0.0000    0.0000 C   0  0  0  0  0  0  0  0  0  0  0  0
   -3.3398    0.0000    0.0000 C   0  0  0  0  0  0  0  0  0  0  0  0
   -3.0595    0.0000    0.0000 C   0  0  0  0  0  0  0  0  0  0  0  0
   -3.5913    0.0000    0.0000 C   0  0  0  0  0  0  0  0  0  0  0  0
   -4.4035    0.0000    0.0000 C   0  0  0  0  0  0  0  0  0  0  0  0
   -4.6838    0.0000    0.0000 C   0  0  0  0  0  0  0  0  0  0  0  0
   -5.4960    0.0000    0.0000 O   0  0  0  0  0  0  0  0  0  0  0  0
   -4.1519    0.0000    0.0000 C   0  0  0  0  0  0  0  0  0  0  0  0
   -4.7638    0.0000    0.0000 C   0  0  0  0  0  0  0  0  0  0  0  0
   -4.0351    0.0000    0.0000 C   0  0  0  0  0  0  0  0  0  0  0  0
   -4.9354    0.0000    0.0000 O   0  0  0  0  0  0  0  0  0  0  0  0
   -2.7792    0.0000    0.0000 C   0  0  0  0  0  0  0  0  0  0  0  0
   -0.2633    0.0000    0.0000 C   0  0  0  0  0  0  0  0  0  0  0  0
   -1.1011    0.0000    0.0000 C   0  0  0  0  0  0  0  0  0  0  0  0
    1.2067    0.0000    0.0000 O   0  0  0  0  0  0  0  0  0  0  0  0
    0.0565    0.0000    0.0000 O   0  0  0  0  0  0  0  0  0  0  0  0
  1  2  1  0      
  2  3  2  0      
  2  4  1  0      
  4  5  1  0      
  5  6  1  0      
  5  7  1  0      
  8  5  1  4      
  8  9  2  0      
  9 10  1  0      
 10 11  2  0      
 10 12  1  0      
 12 13  1  0      
 12 14  1  0      
 14 15  1  0      
 15 16  1  0      
 16 17  1  0      
 17 18  1  0      
 14 18  1  0      
 18 19  1  0      
 19 20  1  0      
 20 21  2  0      
 20 22  1  0      
 22 23  1  0      
 17 23  1  0      
 23 24  1  0      
 24 25  1  0      
 25 26  2  0      
 26 27  1  0      
 22 27  1  0      
 27 28  1  0      
 28 29  1  0      
 29 30  1  0      
 30 31  2  0      
 30 32  1  0      
 26 32  1  0      
 32 33  1  0      
 32 34  1  0      
 29 35  1  0      
 22 36  1  0      
 18 37  1  0      
 17 38  1  0      
 15 39  1  0      
 12 40  1  0      
M  END
>  <Bioactivity>
Cucurbitacin B has profound in vitro and in vivo antiproliferative effects against human pancreatic Y cells. It inhibited AKT signaling activation through up-regulation of PTEN. Cucurbitacin B is an e
ffective inhibitor of HIF-1 and provide new perspectives into the mechanism of its antiY activity. Cucurbitacin B inhibits proliferation and induces apoptosis via STAT3 pathway inhibition in A549 lung
 Y cells.

>  <CAS>
6199-67-3

>  <Col>
10

>  <Formula>
C32H46O8

>  <ID>
T3404

>  <Index>
719

>  <MOLENAME>
Cucurbitacin B

>  <MolWt>
558.7

>  <Pathways>
PI3K/Akt/mTOR Signaling;  Angiogenesis; JAK/STAT signaling

>  <Plate>
PLATE 009

>  <QR code>
1151480812

>  <Receptor>
PTEN;  HIF-1; STAT3

>  <Reference>
1. Shang Y, et al. Eur Rev Med Pharmacol Sci. 2014;18(21):3297-303.

>  <Row>
H

>  <SMILES>
CC(=O)OC(C)(C)C=CC(=O)C(C)(C1C(CC2(C1(CC(=O)C3(C2CC=C4C3CC(C(=O)C4(C)C)O)C)C)C)O)O

>  <Target>
Akt inhibitor; HIF-1 inhibitor; STAT inhibitor

>  <Weight>
10.4mg

$$$$
Lab-1.sdf
  ChemDraw05232018482D

 22 25  0  0  0  0  0  0  0  0999 V2000
    2.0035    0.0000    0.0000 C   0  0  0  0  0  0  0  0  0  0  0  0
    1.6436    0.0000    0.0000 C   0  0  0  0  0  0  0  0  0  0  0  0
    1.1118    0.0000    0.0000 C   0  0  0  0  0  0  0  0  0  0  0  0
    0.2997    0.0000    0.0000 C   0  0  0  0  0  0  0  0  0  0  0  0
    0.0194    0.0000    0.0000 C   0  0  0  0  0  0  0  0  0  0  0  0
    0.5512    0.0000    0.0000 C   0  0  0  0  0  0  0  0  0  0  0  0
    1.3633    0.0000    0.0000 C   0  0  0  0  0  0  0  0  0  0  0  0
    2.0147    0.0000    0.0000 C   0  0  0  0  0  0  0  0  0  0  0  0
    2.6976    0.0000    0.0000 C   0  0  0  0  0  0  0  0  0  0  0  0
    2.4683    0.0000    0.0000 C   0  0  0  0  0  0  0  0  0  0  0  0
    3.2292    0.0000    0.0000 C   0  0  0  0  0  0  0  0  0  0  0  0
    2.5897    0.0000    0.0000 O   0  0  0  0  0  0  0  0  0  0  0  0
    0.2709    0.0000    0.0000 C   0  0  0  0  0  0  0  0  0  0  0  0
   -0.5412    0.0000    0.0000 C   0  0  0  0  0  0  0  0  0  0  0  0
   -1.0730    0.0000    0.0000 C   0  0  0  0  0  0  0  0  0  0  0  0
   -1.8851    0.0000    0.0000 C   0  0  0  0  0  0  0  0  0  0  0  0
   -2.4170    0.0000    0.0000 C   0  0  0  0  0  0  0  0  0  0  0  0
   -3.2292    0.0000    0.0000 O   0  0  0  0  0  0  0  0  0  0  0  0
   -2.1367    0.0000    0.0000 C   0  0  0  0  0  0  0  0  0  0  0  0
   -1.3245    0.0000    0.0000 C   0  0  0  0  0  0  0  0  0  0  0  0
   -0.7927    0.0000    0.0000 C   0  0  0  0  0  0  0  0  0  0  0  0
   -0.5124    0.0000    0.0000 C   0  0  0  0  0  0  0  0  0  0  0  0
  1  2  1  0      
  2  3  1  0      
  3  4  1  0      
  4  5  1  0      
  5  6  1  0      
  6  7  1  0      
  2  7  1  0      
  7  8  1  0      
  8  9  1  0      
  9 10  1  0      
  2 10  1  0      
 10 11  1  0      
 10 12  1  0      
  6 13  1  0      
 13 14  1  0      
 14 15  1  0      
 15 16  2  0      
 16 17  1  0      
 17 18  2  0      
 17 19  1  0      
 19 20  2  0      
 20 21  1  0      
  5 21  1  0      
 15 21  1  0      
 21 22  1  0      
M  END
>  <Bioactivity>
Methandienone is a synthetic steroid with anabolic properties that are more pronounced than its androgenic effects. It has little progestational activity. Methandienone binds to and activates the andr
ogen receptor in order to exert its effects. These include dramatic increases in protein synthesis, glycogenolysis, and muscle strength over a short space of time.

>  <CAS>
72-63-9

>  <Col>
11

>  <Formula>
C20H28O2

>  <ID>
T3613

>  <Index>
720

>  <MOLENAME>
Methandrostenolone

>  <MolWt>
300.44

>  <Pathways>
Endocrinology/ Hormones

>  <Plate>
PLATE 009

>  <QR code>
1151480813

>  <Receptor>
androgen receptor

>  <Reference>
1. Roselli CE. Brain Res. 1998 May 11;792(2):271-6.

>  <Row>
H

>  <SMILES>
CC12CCC3C(C1CCC2(C)O)CCC4=CC(=O)C=CC34C

>  <Target>
androgen receptor

>  <Weight>
10.2mg

$$$$
Lab-1.sdf
  ChemDraw05232018482D

 23 26  0  0  0  0  0  0  0  0999 V2000
   -3.3678    0.0000    0.0000 C   0  0  0  0  0  0  0  0  0  0  0  0
   -2.8360    0.0000    0.0000 C   0  0  0  0  0  0  0  0  0  0  0  0
   -3.1163    0.0000    0.0000 C   0  0  0  0  0  0  0  0  0  0  0  0
   -2.0238    0.0000    0.0000 C   0  0  0  0  0  0  0  0  0  0  0  0
   -1.4920    0.0000    0.0000 C   0  0  0  0  0  0  0  0  0  0  0  0
   -0.6799    0.0000    0.0000 C   0  0  0  0  0  0  0  0  0  0  0  0
   -0.3996    0.0000    0.0000 C   0  0  0  0  0  0  0  0  0  0  0  0
   -0.9314    0.0000    0.0000 C   0  0  0  0  0  0  0  0  0  0  0  0
   -1.7435    0.0000    0.0000 C   0  0  0  0  0  0  0  0  0  0  0  0
    0.4126    0.0000    0.0000 C   0  0  0  0  0  0  0  0  0  0  0  0
    0.6929    0.0000    0.0000 C   0  0  0  0  0  0  0  0  0  0  0  0
    1.5050    0.0000    0.0000 C   0  0  0  0  0  0  0  0  0  0  0  0
    2.0368    0.0000    0.0000 C   0  0  0  0  0  0  0  0  0  0  0  0
    1.7565    0.0000    0.0000 C   0  0  0  0  0  0  0  0  0  0  0  0
    0.9444    0.0000    0.0000 C   0  0  0  0  0  0  0  0  0  0  0  0
    0.6641    0.0000    0.0000 C   0  0  0  0  0  0  0  0  0  0  0  0
   -0.1481    0.0000    0.0000 C   0  0  0  0  0  0  0  0  0  0  0  0
    2.4079    0.0000    0.0000 C   0  0  0  0  0  0  0  0  0  0  0  0
    3.0907    0.0000    0.0000 O   0  0  0  0  0  0  0  0  0  0  0  0
    2.8614    0.0000    0.0000 C   0  0  0  0  0  0  0  0  0  0  0  0
    3.3678    0.0000    0.0000 O   0  0  0  0  0  0  0  0  0  0  0  0
   -0.1193    0.0000    0.0000 C   0  0  0  0  0  0  0  0  0  0  0  0
   -1.7723    0.0000    0.0000 O   0  0  0  0  0  0  0  0  0  0  0  0
  1  2  1  0      
  2  3  1  0      
  2  4  1  0      
  4  5  2  0      
  5  6  1  0      
  6  7  2  0      
  7  8  1  0      
  8  9  2  0      
  4  9  1  0      
  7 10  1  0      
 10 11  1  0      
 11 12  1  0      
 12 13  1  0      
 13 14  2  0      
 14 15  1  0      
 10 15  1  0      
 15 16  1  0      
 16 17  1  0      
  6 17  1  0      
 14 18  1  0      
 18 19  1  0      
 19 20  1  0      
 13 20  1  0      
 20 21  2  0      
 10 22  1  0      
  5 23  1  0      
M  END
>  <Bioactivity>
Triptophenolide and its related compounds from?Tripterygium wilfordii Hook.f?is a kind of diterpenoids which shows anti-inflammatory activity.

>  <CAS>
74285-86-2

>  <Col>
2

>  <Formula>
C20H24O3

>  <ID>
T3393

>  <Index>
721

>  <MOLENAME>
Triptophenolide

>  <MolWt>
312.4

>  <Pathways>
Others

>  <Plate>
PLATE 010

>  <QR code>
1151478113

>  <Receptor>
Others

>  <Reference>
1. Rui Li, et al. International Journal of Mass Spectrometry, 2008, 278(1): 38?49.

>  <Row>
A

>  <SMILES>
CC(C)C1=C(C2=C(C=C1)C3(CCC4=C(C3CC2)COC4=O)C)O

>  <Target>
Others

>  <Weight>
10.1mg

$$$$
Lab-1.sdf
  ChemDraw05232018482D

 25 24  0  0  0  0  0  0  0  0999 V2000
   -3.0826    0.0000    0.0000 C   0  0  0  0  0  0  0  0  0  0  0  0
   -3.0826    0.0000    0.0000 N   0  3  0  0  0  0  0  0  0  0  0  0
   -3.9076    0.0000    0.0000 C   0  0  0  0  0  0  0  0  0  0  0  0
   -2.2576    0.0000    0.0000 C   0  0  0  0  0  0  0  0  0  0  0  0
   -3.0826    0.0000    0.0000 C   0  0  0  0  0  0  0  0  0  0  0  0
   -2.3681    0.0000    0.0000 C   0  0  0  0  0  0  0  0  0  0  0  0
   -2.3681    0.0000    0.0000 O   0  0  0  0  0  0  0  0  0  0  0  0
   -1.6537    0.0000    0.0000 C   0  0  0  0  0  0  0  0  0  0  0  0
   -0.9392    0.0000    0.0000 O   0  0  0  0  0  0  0  0  0  0  0  0
   -1.6537    0.0000    0.0000 C   0  0  0  0  0  0  0  0  0  0  0  0
   -0.9392    0.0000    0.0000 C   0  0  0  0  0  0  0  0  0  0  0  0
   -0.9392    0.0000    0.0000 C   0  0  0  0  0  0  0  0  0  0  0  0
   -0.2247    0.0000    0.0000 C   0  0  0  0  0  0  0  0  0  0  0  0
   -0.2247    0.0000    0.0000 C   0  0  0  0  0  0  0  0  0  0  0  0
   -0.9392    0.0000    0.0000 C   0  0  0  0  0  0  0  0  0  0  0  0
   -1.6537    0.0000    0.0000 C   0  0  0  0  0  0  0  0  0  0  0  0
   -1.6537    0.0000    0.0000 C   0  0  0  0  0  0  0  0  0  0  0  0
   -2.3681    0.0000    0.0000 O   0  0  0  0  0  0  0  0  0  0  0  0
   -2.3681    0.0000    0.0000 C   0  0  0  0  0  0  0  0  0  0  0  0
   -0.9392    0.0000    0.0000 O   0  0  0  0  0  0  0  0  0  0  0  0
    0.4897    0.0000    0.0000 O   0  0  0  0  0  0  0  0  0  0  0  0
    0.4897    0.0000    0.0000 C   0  0  0  0  0  0  0  0  0  0  0  0
    3.0826    0.0000    0.0000 C   0  0  0  0  0  0  0  0  0  0  0  0
    2.2576    0.0000    0.0000 N   0  0  0  0  0  0  0  0  0  0  0  0
    3.9076    0.0000    0.0000 S   0  5  0  0  0  0  0  0  0  0  0  0
  1  2  1  0      
  2  3  1  0      
  2  4  1  0      
  2  5  1  0      
  5  6  1  0      
  6  7  1  0      
  7  8  1  0      
  8  9  2  0      
 10  8  1  4      
 10 11  2  0      
 11 12  1  0      
 12 13  2  0      
 13 14  1  0      
 14 15  2  0      
 15 16  1  0      
 16 17  2  0      
 12 17  1  0      
 17 18  1  0      
 18 19  1  0      
 15 20  1  0      
 14 21  1  0      
 21 22  1  0      
 23 24  3  0      
 23 25  1  0      
M  CHG  2   2   1  25  -1
M  END
>  <Bioactivity>
Sinapine Thiocyanate, is a derivative of Sinapine (S486605), an alkaloidal amine found in black mustard seeds. It is the choline ester of Sinapic Acid (S486800). It is also a phenolic-chloine conjugat
es, acting as anti-oxidants and acetylcholinesterase inhibitors, that can be used for the treatment of Alzheimer¡¯s disease (AD).

>  <CAS>
7431-77-8

>  <Col>
3

>  <Formula>
C16H24NO5?CNS

>  <ID>
T3392

>  <Index>
722

>  <MOLENAME>
Sinapine thiocyanate

>  <MolWt>
368.45

>  <Pathways>
Others

>  <Plate>
PLATE 010

>  <QR code>
1151478112

>  <Receptor>
Others

>  <Reference>
1. Zhang QS, et al. Zhongguo Zhong Yao Za Zhi. 2014 Nov;39(22):4345-8.

>  <Row>
A

>  <SMILES>
C[N+](C)(C)CCOC(=O)C=CC1=CC(=C(C=C1OC)O)OC.C(#N)[S-]

>  <Target>
Acetylcholinesterase inhibitor

>  <Weight>
10mg

$$$$
Lab-1.sdf
  ChemDraw05232018482D

 20 21  0  0  0  0  0  0  0  0999 V2000
    2.8578    0.0000    0.0000 C   0  0  0  0  0  0  0  0  0  0  0  0
    2.1433    0.0000    0.0000 C   0  0  0  0  0  0  0  0  0  0  0  0
    1.4290    0.0000    0.0000 C   0  0  0  0  0  0  0  0  0  0  0  0
    1.4290    0.0000    0.0000 C   0  0  0  0  0  0  0  0  0  0  0  0
    2.1433    0.0000    0.0000 C   0  0  0  0  0  0  0  0  0  0  0  0
    2.8578    0.0000    0.0000 C   0  0  0  0  0  0  0  0  0  0  0  0
    2.1433    0.0000    0.0000 C   0  0  0  0  0  0  0  0  0  0  0  0
    2.8578    0.0000    0.0000 O   0  0  0  0  0  0  0  0  0  0  0  0
    0.7145    0.0000    0.0000 O   0  0  0  0  0  0  0  0  0  0  0  0
   -0.0000    0.0000    0.0000 C   0  0  0  0  0  0  0  0  0  0  0  0
   -0.0000    0.0000    0.0000 C   0  0  0  0  0  0  0  0  0  0  0  0
   -0.7145    0.0000    0.0000 C   0  0  0  0  0  0  0  0  0  0  0  0
   -1.4289    0.0000    0.0000 C   0  0  0  0  0  0  0  0  0  0  0  0
   -1.4289    0.0000    0.0000 C   0  0  0  0  0  0  0  0  0  0  0  0
   -0.7145    0.0000    0.0000 O   0  0  0  0  0  0  0  0  0  0  0  0
   -2.1433    0.0000    0.0000 C   0  0  0  0  0  0  0  0  0  0  0  0
   -2.8578    0.0000    0.0000 O   0  0  0  0  0  0  0  0  0  0  0  0
   -2.1433    0.0000    0.0000 O   0  0  0  0  0  0  0  0  0  0  0  0
   -0.7145    0.0000    0.0000 O   0  0  0  0  0  0  0  0  0  0  0  0
    0.7145    0.0000    0.0000 O   0  0  0  0  0  0  0  0  0  0  0  0
  1  2  2  0      
  2  3  1  0      
  3  4  2  0      
  4  5  1  0      
  5  6  2  0      
  1  6  1  0      
  5  7  1  0      
  7  8  2  0      
  4  9  1  0      
  9 10  1  0      
 10 11  1  0      
 11 12  1  0      
 12 13  1  0      
 13 14  1  0      
 14 15  1  0      
 10 15  1  0      
 14 16  1  0      
 16 17  1  0      
 13 18  1  0      
 12 19  1  0      
 11 20  1  0      
M  END
>  <Bioactivity>
Helicid is a medicine available in a number of countries worldwide.

>  <CAS>
80154-34-3

>  <Col>
4

>  <Formula>
C13H16O7

>  <ID>
T3428

>  <Index>
723

>  <MOLENAME>
Helicid

>  <MolWt>
284.26

>  <Pathways>
Metabolism

>  <Plate>
PLATE 010

>  <QR code>
1151478111

>  <Receptor>
PXR

>  <Reference>
1. Chen Q, et al. Evid Based Complement Alternat Med. 2015, (2015): 9.

>  <Row>
A

>  <SMILES>
C1=CC=C(C(=C1)C=O)OC2C(C(C(C(O2)CO)O)O)O

>  <Target>
PXR

>  <Weight>
10.1mg

$$$$
Lab-1.sdf
  ChemDraw05232018482D

 32 35  0  0  0  0  0  0  0  0999 V2000
   -4.6897    0.0000    0.0000 C   0  0  0  0  0  0  0  0  0  0  0  0
   -3.9752    0.0000    0.0000 C   0  0  0  0  0  0  0  0  0  0  0  0
   -3.9752    0.0000    0.0000 C   0  0  0  0  0  0  0  0  0  0  0  0
   -3.2608    0.0000    0.0000 C   0  0  0  0  0  0  0  0  0  0  0  0
   -3.2608    0.0000    0.0000 O   0  0  0  0  0  0  0  0  0  0  0  0
   -2.5463    0.0000    0.0000 C   0  0  0  0  0  0  0  0  0  0  0  0
   -1.8318    0.0000    0.0000 C   0  0  0  0  0  0  0  0  0  0  0  0
   -1.1173    0.0000    0.0000 C   0  0  0  0  0  0  0  0  0  0  0  0
   -1.1173    0.0000    0.0000 C   0  0  0  0  0  0  0  0  0  0  0  0
   -1.8318    0.0000    0.0000 C   0  0  0  0  0  0  0  0  0  0  0  0
   -2.5463    0.0000    0.0000 C   0  0  0  0  0  0  0  0  0  0  0  0
   -3.2608    0.0000    0.0000 O   0  0  0  0  0  0  0  0  0  0  0  0
   -0.3327    0.0000    0.0000 O   0  0  0  0  0  0  0  0  0  0  0  0
    0.1522    0.0000    0.0000 C   0  0  0  0  0  0  0  0  0  0  0  0
   -0.3327    0.0000    0.0000 C   0  0  0  0  0  0  0  0  0  0  0  0
    0.9772    0.0000    0.0000 C   0  0  0  0  0  0  0  0  0  0  0  0
    0.9772    0.0000    0.0000 C   0  0  0  0  0  0  0  0  0  0  0  0
    0.9772    0.0000    0.0000 C   0  0  0  0  0  0  0  0  0  0  0  0
    1.8022    0.0000    0.0000 O   0  0  0  0  0  0  0  0  0  0  0  0
    2.2147    0.0000    0.0000 C   0  0  0  0  0  0  0  0  0  0  0  0
    1.8022    0.0000    0.0000 C   0  0  0  0  0  0  0  0  0  0  0  0
    2.2147    0.0000    0.0000 C   0  0  0  0  0  0  0  0  0  0  0  0
    3.0397    0.0000    0.0000 C   0  0  0  0  0  0  0  0  0  0  0  0
    3.4522    0.0000    0.0000 C   0  0  0  0  0  0  0  0  0  0  0  0
    3.0397    0.0000    0.0000 O   0  0  0  0  0  0  0  0  0  0  0  0
    4.2772    0.0000    0.0000 C   0  0  0  0  0  0  0  0  0  0  0  0
    4.6897    0.0000    0.0000 O   0  0  0  0  0  0  0  0  0  0  0  0
    3.4522    0.0000    0.0000 O   0  0  0  0  0  0  0  0  0  0  0  0
    1.8022    0.0000    0.0000 O   0  0  0  0  0  0  0  0  0  0  0  0
    0.9772    0.0000    0.0000 O   0  0  0  0  0  0  0  0  0  0  0  0
   -1.8318    0.0000    0.0000 O   0  0  0  0  0  0  0  0  0  0  0  0
   -1.1173    0.0000    0.0000 C   0  0  0  0  0  0  0  0  0  0  0  0
  1  2  1  0      
  2  3  2  0      
  3  4  1  0      
  4  5  2  0      
  4  6  1  0      
  6  7  2  0      
  7  8  1  0      
  8  9  2  0      
  9 10  1  0      
 10 11  2  0      
  6 11  1  0      
 11 12  1  0      
  2 12  1  0      
  9 13  1  0      
 13 14  1  0      
 14 15  1  0      
  8 15  1  0      
 14 16  1  0      
 16 17  1  0      
 16 18  1  0      
 16 19  1  0      
 19 20  1  0      
 20 21  1  0      
 21 22  1  0      
 22 23  1  0      
 23 24  1  0      
 24 25  1  0      
 20 25  1  0      
 24 26  1  0      
 26 27  1  0      
 23 28  1  0      
 22 29  1  0      
 21 30  1  0      
  7 31  1  0      
 31 32  1  0      
M  END
>  <Bioactivity>
5-O-Methylvisammioside is a nature compound that isolated from the famous Chinese herbal medicines, Saposhnikovia divaricata (Turcz.) Schischk.

>  <CAS>
84272-85-5

>  <Col>
5

>  <Formula>
C22H28O10

>  <ID>
T3413

>  <Index>
724

>  <MOLENAME>
5-O-Methylvisammioside

>  <MolWt>
452.46

>  <Pathways>
Others

>  <Plate>
PLATE 010

>  <QR code>
1151478110

>  <Receptor>
Others

>  <Reference>
1. Li W, et al. Phytochem Anal. 2011 Jul-Aug;22(4):313-21.

>  <Row>
A

>  <SMILES>
CC1=CC(=O)C2=C(C3=C(C=C2O1)OC(C3)C(C)(C)OC4C(C(C(C(O4)CO)O)O)O)OC

>  <Target>
Others

>  <Weight>
10.4mg

$$$$
Lab-1.sdf
  ChemDraw05232018482D

 54 56  0  0  0  0  0  0  0  0999 V2000
   -2.1343    0.0000    0.0000 C   0  0  0  0  0  0  0  0  0  0  0  0
   -1.4820    0.0000    0.0000 C   0  0  0  0  0  0  0  0  0  0  0  0
   -1.5932    0.0000    0.0000 C   0  0  0  0  0  0  0  0  0  0  0  0
   -0.9411    0.0000    0.0000 N   0  0  0  0  0  0  0  0  0  0  0  0
   -0.6861    0.0000    0.0000 C   0  0  0  0  0  0  0  0  0  0  0  0
    0.1389    0.0000    0.0000 C   0  0  0  0  0  0  0  0  0  0  0  0
    0.3938    0.0000    0.0000 C   0  0  0  0  0  0  0  0  0  0  0  0
    1.1553    0.0000    0.0000 C   0  0  0  0  0  0  0  0  0  0  0  0
    1.1553    0.0000    0.0000 C   0  0  0  0  0  0  0  0  0  0  0  0
    1.8698    0.0000    0.0000 O   0  0  0  0  0  0  0  0  0  0  0  0
    1.8698    0.0000    0.0000 C   0  0  0  0  0  0  0  0  0  0  0  0
    2.5843    0.0000    0.0000 O   0  0  0  0  0  0  0  0  0  0  0  0
    1.1553    0.0000    0.0000 C   0  0  0  0  0  0  0  0  0  0  0  0
    0.4408    0.0000    0.0000 C   0  0  0  0  0  0  0  0  0  0  0  0
   -0.2736    0.0000    0.0000 C   0  0  0  0  0  0  0  0  0  0  0  0
   -0.9881    0.0000    0.0000 C   0  0  0  0  0  0  0  0  0  0  0  0
   -0.9881    0.0000    0.0000 C   0  0  0  0  0  0  0  0  0  0  0  0
   -1.7026    0.0000    0.0000 C   0  0  0  0  0  0  0  0  0  0  0  0
   -1.7026    0.0000    0.0000 C   0  0  0  0  0  0  0  0  0  0  0  0
   -2.4258    0.0000    0.0000 C   0  0  0  0  0  0  0  0  0  0  0  0
   -1.5816    0.0000    0.0000 C   0  0  0  0  0  0  0  0  0  0  0  0
   -1.7811    0.0000    0.0000 O   0  0  0  0  0  0  0  0  0  0  0  0
   -1.7026    0.0000    0.0000 O   0  0  0  0  0  0  0  0  0  0  0  0
   -1.7026    0.0000    0.0000 C   0  0  0  0  0  0  0  0  0  0  0  0
   -2.4170    0.0000    0.0000 C   0  0  0  0  0  0  0  0  0  0  0  0
   -2.4170    0.0000    0.0000 C   0  0  0  0  0  0  0  0  0  0  0  0
   -1.7026    0.0000    0.0000 C   0  0  0  0  0  0  0  0  0  0  0  0
   -0.9881    0.0000    0.0000 C   0  0  0  0  0  0  0  0  0  0  0  0
   -0.9881    0.0000    0.0000 O   0  0  0  0  0  0  0  0  0  0  0  0
   -0.2736    0.0000    0.0000 C   0  0  0  0  0  0  0  0  0  0  0  0
   -3.1314    0.0000    0.0000 N   0  0  0  0  0  0  0  0  0  0  0  0
   -3.1314    0.0000    0.0000 C   0  0  0  0  0  0  0  0  0  0  0  0
   -3.8459    0.0000    0.0000 C   0  0  0  0  0  0  0  0  0  0  0  0
   -3.1314    0.0000    0.0000 O   0  0  0  0  0  0  0  0  0  0  0  0
   -0.2736    0.0000    0.0000 C   0  0  0  0  0  0  0  0  0  0  0  0
    0.4408    0.0000    0.0000 O   0  0  0  0  0  0  0  0  0  0  0  0
    1.1553    0.0000    0.0000 C   0  0  0  0  0  0  0  0  0  0  0  0
    1.8698    0.0000    0.0000 C   0  0  0  0  0  0  0  0  0  0  0  0
    2.5843    0.0000    0.0000 C   0  0  0  0  0  0  0  0  0  0  0  0
    2.5843    0.0000    0.0000 C   0  0  0  0  0  0  0  0  0  0  0  0
    1.8698    0.0000    0.0000 C   0  0  0  0  0  0  0  0  0  0  0  0
    1.1553    0.0000    0.0000 O   0  0  0  0  0  0  0  0  0  0  0  0
    1.8698    0.0000    0.0000 C   0  0  0  0  0  0  0  0  0  0  0  0
    3.2987    0.0000    0.0000 O   0  0  0  0  0  0  0  0  0  0  0  0
    3.0214    0.0000    0.0000 C   0  0  0  0  0  0  0  0  0  0  0  0
    3.4087    0.0000    0.0000 O   0  0  0  0  0  0  0  0  0  0  0  0
    3.8459    0.0000    0.0000 C   0  0  0  0  0  0  0  0  0  0  0  0
    1.6402    0.0000    0.0000 C   0  0  0  0  0  0  0  0  0  0  0  0
    1.8698    0.0000    0.0000 C   0  0  0  0  0  0  0  0  0  0  0  0
    2.5843    0.0000    0.0000 C   0  0  0  0  0  0  0  0  0  0  0  0
    1.6111    0.0000    0.0000 C   0  0  0  0  0  0  0  0  0  0  0  0
    1.9802    0.0000    0.0000 O   0  0  0  0  0  0  0  0  0  0  0  0
   -0.2585    0.0000    0.0000 O   0  0  0  0  0  0  0  0  0  0  0  0
    0.6238    0.0000    0.0000 C   0  0  0  0  0  0  0  0  0  0  0  0
  1  2  1  0      
  2  3  1  0      
  3  4  1  0      
  4  5  1  0      
  5  6  1  0      
  6  7  1  0      
  7  8  1  0      
  8  9  1  0      
  9 10  1  0      
 10 11  1  0      
 11 12  2  0      
 11 13  1  0      
 13 14  1  0      
 14 15  1  0      
 15 16  1  0      
 16 17  1  0      
 17 18  1  0      
 18 19  1  0      
  4 19  1  0      
 19 20  1  0      
 17 21  1  0      
 17 22  1  0      
 16 23  1  0      
 23 24  1  0      
 24 25  1  0      
 25 26  1  0      
 26 27  1  0      
 27 28  1  0      
 28 29  1  0      
 24 29  1  0      
 28 30  1  0      
 26 31  1  0      
 31 32  1  0      
 31 33  1  0      
 25 34  1  0      
 15 35  1  0      
 14 36  1  0      
 36 37  1  0      
 37 38  1  0      
 38 39  1  0      
 39 40  1  0      
 40 41  1  0      
 41 42  1  0      
 37 42  1  0      
 41 43  1  0      
 40 44  1  0      
 39 45  1  0      
 39 46  1  0      
 46 47  1  0      
 13 48  1  0      
  9 49  1  0      
 49 50  1  0      
  8 51  1  0      
  8 52  1  0      
  7 53  1  0      
  6 54  1  0      
M  END
>  <Bioactivity>
A macrolide compound with antibacterial activity

>  <CAS>
145435-72-9

>  <Col>
6

>  <Formula>
C40H76N2O12

>  <ID>
T3629

>  <Index>
725

>  <MOLENAME>
Gamithromycin

>  <MolWt>
777.04

>  <Pathways>
Others

>  <Plate>
PLATE 010

>  <QR code>
1151478109

>  <Receptor>
Others

>  <Reference>
1. Mahendran SA, et al. Randomised positive control trial of NSAID and antimicrobial treatment for calf fever caused by pneumonia. Vet Rec. 2017 Apr 21. pii: vetrec-2016-104057.

>  <Row>
A

>  <SMILES>
CCCN1CC(C(C(C(OC(=O)C(C(C(C(C(CC1C)(C)O)OC2C(C(CC(O2)C)N(C)C)O)C)OC3CC(C(C(O3)C)O)(C)OC)C)CC)(C)O)O)C

>  <Target>
Others

>  <Weight>
10.3mg

$$$$
Lab-1.sdf
  ChemDraw05232018482D

 39 40  0  0  0  0  0  0  0  0999 V2000
   -2.3766    0.0000    0.0000 C   0  0  0  0  0  0  0  0  0  0  0  0
   -1.9394    0.0000    0.0000 C   0  0  0  0  0  0  0  0  0  0  0  0
   -2.7639    0.0000    0.0000 C   0  0  0  0  0  0  0  0  0  0  0  0
   -3.1512    0.0000    0.0000 C   0  0  0  0  0  0  0  0  0  0  0  0
   -2.7140    0.0000    0.0000 C   0  0  0  0  0  0  0  0  0  0  0  0
   -1.8895    0.0000    0.0000 C   0  0  0  0  0  0  0  0  0  0  0  0
   -1.5022    0.0000    0.0000 C   0  0  0  0  0  0  0  0  0  0  0  0
   -0.6777    0.0000    0.0000 C   0  0  0  0  0  0  0  0  0  0  0  0
   -0.2904    0.0000    0.0000 C   0  0  0  0  0  0  0  0  0  0  0  0
   -0.7276    0.0000    0.0000 C   0  0  0  0  0  0  0  0  0  0  0  0
   -0.3403    0.0000    0.0000 C   0  0  0  0  0  0  0  0  0  0  0  0
   -1.5521    0.0000    0.0000 C   0  0  0  0  0  0  0  0  0  0  0  0
   -1.9893    0.0000    0.0000 C   0  0  0  0  0  0  0  0  0  0  0  0
   -1.6019    0.0000    0.0000 C   0  0  0  0  0  0  0  0  0  0  0  0
   -2.0391    0.0000    0.0000 C   0  0  0  0  0  0  0  0  0  0  0  0
   -1.7301    0.0000    0.0000 C   0  0  0  0  0  0  0  0  0  0  0  0
   -2.3621    0.0000    0.0000 C   0  0  0  0  0  0  0  0  0  0  0  0
   -3.0617    0.0000    0.0000 O   0  0  0  0  0  0  0  0  0  0  0  0
   -2.8621    0.0000    0.0000 C   0  0  0  0  0  0  0  0  0  0  0  0
   -3.3924    0.0000    0.0000 O   0  0  0  0  0  0  0  0  0  0  0  0
   -1.8320    0.0000    0.0000 C   0  0  0  0  0  0  0  0  0  0  0  0
   -1.1751    0.0000    0.0000 C   0  0  0  0  0  0  0  0  0  0  0  0
   -0.4606    0.0000    0.0000 O   0  0  0  0  0  0  0  0  0  0  0  0
    0.2538    0.0000    0.0000 C   0  0  0  0  0  0  0  0  0  0  0  0
    0.2538    0.0000    0.0000 O   0  0  0  0  0  0  0  0  0  0  0  0
    0.9683    0.0000    0.0000 C   0  0  0  0  0  0  0  0  0  0  0  0
    1.6827    0.0000    0.0000 C   0  0  0  0  0  0  0  0  0  0  0  0
    2.3972    0.0000    0.0000 C   0  0  0  0  0  0  0  0  0  0  0  0
    2.3972    0.0000    0.0000 O   0  0  0  0  0  0  0  0  0  0  0  0
    3.1117    0.0000    0.0000 O   0  5  0  0  0  0  0  0  0  0  0  0
   -3.1013    0.0000    0.0000 O   0  0  0  0  0  0  0  0  0  0  0  0
   -2.6642    0.0000    0.0000 C   0  0  0  0  0  0  0  0  0  0  0  0
   -1.8397    0.0000    0.0000 O   0  0  0  0  0  0  0  0  0  0  0  0
   -3.0515    0.0000    0.0000 C   0  0  0  0  0  0  0  0  0  0  0  0
   -2.6143    0.0000    0.0000 C   0  0  0  0  0  0  0  0  0  0  0  0
   -3.0016    0.0000    0.0000 C   0  0  0  0  0  0  0  0  0  0  0  0
   -3.8261    0.0000    0.0000 O   0  0  0  0  0  0  0  0  0  0  0  0
   -2.5644    0.0000    0.0000 O   0  0  0  0  0  0  0  0  0  0  0  0
    3.8261    0.0000    0.0000 K   0  3  0  0  0  0  0  0  0  0  0  0
  1  2  1  0      
  2  3  1  0      
  3  4  1  0      
  4  5  1  0      
  5  6  1  0      
  6  7  1  0      
  2  7  1  0      
  7  8  1  0      
  8  9  1  0      
  9 10  1  0      
 10 11  2  0      
 10 12  1  0      
  2 12  1  0      
 13 12  1  4      
 13 14  2  0      
 14 15  1  0      
 15 16  2  0      
 16 17  1  0      
 17 18  1  0      
 18 19  1  0      
 15 19  1  0      
 19 20  2  0      
  6 21  1  0      
  6 22  1  0      
 22 23  1  0      
 23 24  1  0      
 24 25  2  0      
 24 26  1  0      
 26 27  1  0      
 27 28  1  0      
 28 29  2  0      
 28 30  1  0      
  5 31  1  0      
 31 32  1  0      
 32 33  2  0      
 32 34  1  0      
 34 35  1  0      
 35 36  1  0      
 36 37  2  0      
 36 38  1  0      
M  CHG  2  30  -1  39   1
M  END
>  <Bioactivity>
A nature compound with anti-virus infection activity which had been marketed for the treatment of  viral pneumonia, viral upper respiratory infection.

>  <CAS>
76958-99-1

>  <Col>
7

>  <Formula>
C28H35OK10

>  <ID>
T3667

>  <Index>
726

>  <MOLENAME>
Dehydroandrographolide Succinate Potasium Salt

>  <MolWt>
570.67

>  <Pathways>
Others

>  <Plate>
PLATE 010

>  <QR code>
1151478108

>  <Receptor>
Others

>  <Reference>
1. Hsieh MJ, et al. Oncotarget. 2015 Oct 13;6(31):30831-49. 

>  <Row>
A

>  <SMILES>
CC12CCC(C(C1CCC(=C)C2C=CC3=CCOC3=O)(C)COC(=O)CCC(=O)[O-])OC(=O)CCC(=O)O.[K+]

>  <Target>
Others

>  <Weight>
10.4mg

$$$$
Lab-1.sdf
  ChemDraw05232018482D

 32 36  0  0  0  0  0  0  0  0999 V2000
   -0.7145    0.0000    0.0000 H   0  0  0  0  0  0  0  0  0  0  0  0
   -1.4289    0.0000    0.0000 C   0  0  0  0  0  0  0  0  0  0  0  0
   -2.2135    0.0000    0.0000 C   0  0  0  0  0  0  0  0  0  0  0  0
   -2.6984    0.0000    0.0000 O   0  0  0  0  0  0  0  0  0  0  0  0
   -2.2135    0.0000    0.0000 C   0  0  0  0  0  0  0  0  0  0  0  0
   -2.4684    0.0000    0.0000 O   0  0  0  0  0  0  0  0  0  0  0  0
   -1.4289    0.0000    0.0000 C   0  0  0  0  0  0  0  0  0  0  0  0
   -1.5151    0.0000    0.0000 H   0  0  0  0  0  0  0  0  0  0  0  0
   -0.7145    0.0000    0.0000 C   0  0  0  0  0  0  0  0  0  0  0  0
   -0.7145    0.0000    0.0000 C   0  0  0  0  0  0  0  0  0  0  0  0
   -1.4289    0.0000    0.0000 C   0  0  0  0  0  0  0  0  0  0  0  0
   -1.4289    0.0000    0.0000 C   0  0  0  0  0  0  0  0  0  0  0  0
   -2.1434    0.0000    0.0000 O   0  0  0  0  0  0  0  0  0  0  0  0
   -2.1434    0.0000    0.0000 C   0  0  0  0  0  0  0  0  0  0  0  0
   -0.7145    0.0000    0.0000 C   0  0  0  0  0  0  0  0  0  0  0  0
   -0.7145    0.0000    0.0000 O   0  0  0  0  0  0  0  0  0  0  0  0
    0.0000    0.0000    0.0000 C   0  0  0  0  0  0  0  0  0  0  0  0
    0.0000    0.0000    0.0000 C   0  0  0  0  0  0  0  0  0  0  0  0
    0.7144    0.0000    0.0000 O   0  0  0  0  0  0  0  0  0  0  0  0
    1.4289    0.0000    0.0000 C   0  0  0  0  0  0  0  0  0  0  0  0
    0.0000    0.0000    0.0000 C   0  0  0  0  0  0  0  0  0  0  0  0
    0.0000    0.0000    0.0000 C   0  0  0  0  0  0  0  0  0  0  0  0
    0.7144    0.0000    0.0000 C   0  0  0  0  0  0  0  0  0  0  0  0
    1.4289    0.0000    0.0000 C   0  0  0  0  0  0  0  0  0  0  0  0
    1.4289    0.0000    0.0000 C   0  0  0  0  0  0  0  0  0  0  0  0
    2.2135    0.0000    0.0000 O   0  0  0  0  0  0  0  0  0  0  0  0
    2.6984    0.0000    0.0000 C   0  0  0  0  0  0  0  0  0  0  0  0
    2.2135    0.0000    0.0000 O   0  0  0  0  0  0  0  0  0  0  0  0
    0.7144    0.0000    0.0000 C   0  0  0  0  0  0  0  0  0  0  0  0
    0.0000    0.0000    0.0000 C   0  0  0  0  0  0  0  0  0  0  0  0
   -0.7145    0.0000    0.0000 C   0  0  0  0  0  0  0  0  0  0  0  0
   -0.7145    0.0000    0.0000 O   0  0  0  0  0  0  0  0  0  0  0  0
  2  1  1  6      
  2  3  1  0      
  3  4  1  0      
  4  5  1  0      
  5  6  2  0      
  5  7  1  0      
  2  7  1  0      
  7  8  1  6      
  7  9  1  0      
  9 10  1  6      
 10 11  2  0      
 11 12  1  0      
 12 13  1  0      
 13 14  1  0      
 12 15  2  0      
 15 16  1  0      
 16 17  1  0      
 15 18  1  0      
 18 19  1  0      
 19 20  1  0      
 18 21  2  0      
 10 21  1  0      
  9 22  1  0      
 22 23  2  0      
 23 24  1  0      
 24 25  2  0      
 25 26  1  0      
 26 27  1  0      
 27 28  1  0      
 24 28  1  0      
 25 29  1  0      
 29 30  2  0      
 22 30  1  0      
 30 31  1  0      
  2 31  1  0      
 31 32  1  6      
M  END
>  <Bioactivity>
Picropodophyllin (PPP) is a selective IGF-1R inhibitor with IC50 of 1 nM. Phase 1/2.

>  <CAS>
477-47-4

>  <Col>
8

>  <Formula>
C22H22O8

>  <ID>
T6943

>  <Index>
727

>  <MOLENAME>
Picropodophyllin (PPP)

>  <MolWt>
414.41

>  <Pathways>
Protein Tyrosine Kinase

>  <Plate>
PLATE 010

>  <QR code>
1151478107

>  <Receptor>
IGF-1R

>  <Reference>
1. Lemaire M, Fristedt C, Agarwal P, et al. Clin Cancer Res. 2012 Apr 15;18(8):2230-9.

>  <Row>
A

>  <SMILES>
[H][C@]12COC(=O)[C@@]1([H])[C@H](C1=CC(OC)=C(OC)C(OC)=C1)C1=CC3=C(OCO3)C=C1[C@@H]2O |r,c:20,31,t:10,14,23,25|

>  <Target>
 IGF-1R inhibitor

>  <Weight>
10.1mg

$$$$
Lab-1.sdf
  ChemDraw05232018482D

 14 14  0  0  0  0  0  0  0  0999 V2000
    1.4289    0.0000    0.0000 C   0  0  0  0  0  0  0  0  0  0  0  0
    0.7145    0.0000    0.0000 O   0  0  0  0  0  0  0  0  0  0  0  0
    0.7145    0.0000    0.0000 C   0  0  0  0  0  0  0  0  0  0  0  0
    1.4289    0.0000    0.0000 C   0  0  0  0  0  0  0  0  0  0  0  0
    2.1434    0.0000    0.0000 O   0  0  0  0  0  0  0  0  0  0  0  0
    1.4289    0.0000    0.0000 C   0  0  0  0  0  0  0  0  0  0  0  0
    0.7145    0.0000    0.0000 C   0  0  0  0  0  0  0  0  0  0  0  0
   -0.0000    0.0000    0.0000 C   0  0  0  0  0  0  0  0  0  0  0  0
   -0.7145    0.0000    0.0000 C   0  0  0  0  0  0  0  0  0  0  0  0
   -0.7145    0.0000    0.0000 C   0  0  0  0  0  0  0  0  0  0  0  0
   -1.4289    0.0000    0.0000 C   0  0  0  0  0  0  0  0  0  0  0  0
   -1.4289    0.0000    0.0000 C   0  0  0  0  0  0  0  0  0  0  0  0
   -2.1434    0.0000    0.0000 O   0  0  0  0  0  0  0  0  0  0  0  0
   -0.0000    0.0000    0.0000 C   0  0  0  0  0  0  0  0  0  0  0  0
  1  2  1  0      
  2  3  1  0      
  3  4  2  0      
  4  5  1  0      
  4  6  1  0      
  6  7  2  0      
  7  8  1  0      
  8  9  1  0      
  9 10  1  0      
 10 11  1  0      
 11 12  1  0      
 11 13  2  0      
  8 14  2  0      
  3 14  1  0      
M  END
>  <Bioactivity>
Vanillylacetone is similar in chemical structure to other flavor chemicals such as vanillin and eugenol and is used as a flavor additive in spice oils and in perfumery to introduce spicy aromas.

>  <CAS>
122-48-5

>  <Col>
9

>  <Formula>
C11H14O3

>  <ID>
T6718

>  <Index>
728

>  <MOLENAME>
Vanillylacetone

>  <MolWt>
194.23

>  <Pathways>
Others

>  <Plate>
PLATE 010

>  <QR code>
1151478106

>  <Receptor>
Others

>  <Reference>
1. Chen JC, et al. J Agric Food Chem, 2007, 55(21), 8390-8397.

>  <Row>
A

>  <SMILES>
COC1=C(O)C=CC(CCC(C)=O)=C1

>  <Target>
Others

>  <Weight>
10.2mg

$$$$
Lab-1.sdf
  ChemDraw05232018482D

 17 17  0  0  0  0  0  0  0  0999 V2000
    0.1351    0.0000    0.0000 C   0  0  0  0  0  0  0  0  0  0  0  0
    0.6751    0.0000    0.0000 C   0  0  0  0  0  0  0  0  0  0  0  0
    1.4853    0.0000    0.0000 C   0  0  0  0  0  0  0  0  0  0  0  0
    2.0254    0.0000    0.0000 C   0  0  0  0  0  0  0  0  0  0  0  0
    1.7553    0.0000    0.0000 C   0  0  0  0  0  0  0  0  0  0  0  0
    0.9452    0.0000    0.0000 C   0  0  0  0  0  0  0  0  0  0  0  0
    0.6751    0.0000    0.0000 C   0  0  0  0  0  0  0  0  0  0  0  0
   -0.1351    0.0000    0.0000 C   0  0  0  0  0  0  0  0  0  0  0  0
   -0.4051    0.0000    0.0000 O   0  0  0  0  0  0  0  0  0  0  0  0
   -0.6752    0.0000    0.0000 C   0  0  0  0  0  0  0  0  0  0  0  0
   -0.4051    0.0000    0.0000 C   0  0  0  0  0  0  0  0  0  0  0  0
    0.4051    0.0000    0.0000 C   0  0  0  0  0  0  0  0  0  0  0  0
    0.2180    0.0000    0.0000 O   0  0  0  0  0  0  0  0  0  0  0  0
   -1.4853    0.0000    0.0000 C   0  0  0  0  0  0  0  0  0  0  0  0
   -1.7554    0.0000    0.0000 C   0  0  0  0  0  0  0  0  0  0  0  0
   -2.0254    0.0000    0.0000 C   0  0  0  0  0  0  0  0  0  0  0  0
    0.8748    0.0000    0.0000 C   0  0  0  0  0  0  0  0  0  0  0  0
  1  2  1  0      
  2  3  1  0      
  3  4  1  0      
  5  4  1  4      
  5  6  2  0      
  6  7  1  0      
  7  8  1  0      
  8  9  2  0      
  8 10  1  0      
 10 11  1  0      
 11 12  1  0      
  2 12  1  0      
 12 13  2  0      
 10 14  1  0      
 14 15  1  0      
 14 16  1  0      
  6 17  1  0      
M  END
>  <Bioactivity>
Curdione inhibits CYP3A4 activity and the production of prostaglandin E2. Curdione inhibits proliferation of MCF-7 cells by inducing apoptosis. Curdione may be a candidate for anti-inflammatory and Y 
chemopreventive agents.

>  <CAS>
13657-68-6

>  <Col>
10

>  <Formula>
C15H24O2

>  <ID>
T3411

>  <Index>
729

>  <MOLENAME>
Curdione

>  <MolWt>
236.34

>  <Pathways>
Metabolism; apoptosis

>  <Plate>
PLATE 010

>  <QR code>
1151478105

>  <Receptor>
CYP3A4

>  <Reference>
1. Li J, et al. Asian Pac J Y Prev. 2014;15(22):9997-10001.

>  <Row>
A

>  <SMILES>
CC1CCC=C(CC(=O)C(CC1=O)C(C)C)C

>  <Target>
CYP inhibitor

>  <Weight>
10.4mg

$$$$
Lab-1.sdf
  ChemDraw05232018482D

 48 51  0  0  0  0  0  0  0  0999 V2000
   -3.9295    0.0000    0.0000 C   0  0  0  0  0  0  0  0  0  0  0  0
   -3.2151    0.0000    0.0000 O   0  0  0  0  0  0  0  0  0  0  0  0
   -2.5006    0.0000    0.0000 C   0  0  0  0  0  0  0  0  0  0  0  0
   -2.5006    0.0000    0.0000 C   0  0  0  0  0  0  0  0  0  0  0  0
   -1.7861    0.0000    0.0000 C   0  0  0  0  0  0  0  0  0  0  0  0
   -1.0717    0.0000    0.0000 C   0  0  0  0  0  0  0  0  0  0  0  0
   -1.0717    0.0000    0.0000 C   0  0  0  0  0  0  0  0  0  0  0  0
   -1.7861    0.0000    0.0000 C   0  0  0  0  0  0  0  0  0  0  0  0
   -0.3572    0.0000    0.0000 C   0  0  0  0  0  0  0  0  0  0  0  0
   -0.3572    0.0000    0.0000 C   0  0  0  0  0  0  0  0  0  0  0  0
   -1.0717    0.0000    0.0000 C   0  0  0  0  0  0  0  0  0  0  0  0
   -1.7861    0.0000    0.0000 O   0  0  0  0  0  0  0  0  0  0  0  0
   -2.5006    0.0000    0.0000 C   0  0  0  0  0  0  0  0  0  0  0  0
   -2.5006    0.0000    0.0000 C   0  0  0  0  0  0  0  0  0  0  0  0
   -3.2151    0.0000    0.0000 C   0  0  0  0  0  0  0  0  0  0  0  0
   -3.9295    0.0000    0.0000 C   0  0  0  0  0  0  0  0  0  0  0  0
   -3.9295    0.0000    0.0000 C   0  0  0  0  0  0  0  0  0  0  0  0
   -3.2151    0.0000    0.0000 O   0  0  0  0  0  0  0  0  0  0  0  0
   -4.6439    0.0000    0.0000 C   0  0  0  0  0  0  0  0  0  0  0  0
   -5.3584    0.0000    0.0000 O   0  0  0  0  0  0  0  0  0  0  0  0
   -4.6439    0.0000    0.0000 O   0  0  0  0  0  0  0  0  0  0  0  0
   -3.2151    0.0000    0.0000 O   0  0  0  0  0  0  0  0  0  0  0  0
   -1.7861    0.0000    0.0000 O   0  0  0  0  0  0  0  0  0  0  0  0
    0.3572    0.0000    0.0000 C   0  0  0  0  0  0  0  0  0  0  0  0
    0.3572    0.0000    0.0000 C   0  0  0  0  0  0  0  0  0  0  0  0
    1.0716    0.0000    0.0000 C   0  0  0  0  0  0  0  0  0  0  0  0
    1.7861    0.0000    0.0000 C   0  0  0  0  0  0  0  0  0  0  0  0
    2.5006    0.0000    0.0000 C   0  0  0  0  0  0  0  0  0  0  0  0
    2.5006    0.0000    0.0000 C   0  0  0  0  0  0  0  0  0  0  0  0
    1.7861    0.0000    0.0000 C   0  0  0  0  0  0  0  0  0  0  0  0
    1.0716    0.0000    0.0000 C   0  0  0  0  0  0  0  0  0  0  0  0
    3.2151    0.0000    0.0000 O   0  0  0  0  0  0  0  0  0  0  0  0
    3.2151    0.0000    0.0000 O   0  0  0  0  0  0  0  0  0  0  0  0
    3.9294    0.0000    0.0000 C   0  0  0  0  0  0  0  0  0  0  0  0
    1.0716    0.0000    0.0000 C   0  0  0  0  0  0  0  0  0  0  0  0
    1.7861    0.0000    0.0000 O   0  0  0  0  0  0  0  0  0  0  0  0
    2.5006    0.0000    0.0000 C   0  0  0  0  0  0  0  0  0  0  0  0
    2.5006    0.0000    0.0000 C   0  0  0  0  0  0  0  0  0  0  0  0
    3.2151    0.0000    0.0000 C   0  0  0  0  0  0  0  0  0  0  0  0
    3.9294    0.0000    0.0000 C   0  0  0  0  0  0  0  0  0  0  0  0
    3.9294    0.0000    0.0000 C   0  0  0  0  0  0  0  0  0  0  0  0
    3.2151    0.0000    0.0000 O   0  0  0  0  0  0  0  0  0  0  0  0
    4.6439    0.0000    0.0000 C   0  0  0  0  0  0  0  0  0  0  0  0
    5.3584    0.0000    0.0000 O   0  0  0  0  0  0  0  0  0  0  0  0
    4.6439    0.0000    0.0000 O   0  0  0  0  0  0  0  0  0  0  0  0
    3.2151    0.0000    0.0000 O   0  0  0  0  0  0  0  0  0  0  0  0
    1.7861    0.0000    0.0000 O   0  0  0  0  0  0  0  0  0  0  0  0
   -3.2151    0.0000    0.0000 O   0  0  0  0  0  0  0  0  0  0  0  0
  1  2  1  0      
  2  3  1  0      
  3  4  2  0      
  4  5  1  0      
  5  6  2  0      
  6  7  1  0      
  7  8  2  0      
  3  8  1  0      
  7  9  1  0      
  9 10  1  0      
 10 11  1  0      
 11 12  1  0      
 12 13  1  0      
 13 14  1  0      
 14 15  1  0      
 15 16  1  0      
 16 17  1  0      
 17 18  1  0      
 13 18  1  0      
 17 19  1  0      
 19 20  1  0      
 16 21  1  0      
 15 22  1  0      
 14 23  1  0      
 10 24  1  0      
 24 25  1  0      
 25 26  1  0      
 26 27  2  0      
 27 28  1  0      
 28 29  2  0      
 29 30  1  0      
 30 31  2  0      
 26 31  1  0      
 29 32  1  0      
 28 33  1  0      
 33 34  1  0      
 24 35  1  0      
 35 36  1  0      
 36 37  1  0      
 37 38  1  0      
 38 39  1  0      
 39 40  1  0      
 40 41  1  0      
 41 42  1  0      
 37 42  1  0      
 41 43  1  0      
 43 44  1  0      
 40 45  1  0      
 39 46  1  0      
 38 47  1  0      
  4 48  1  0      
M  END
>  <Bioactivity>
Secoisolariciresinol Diglucoside was cytoprotective in an in vitro model of iron overload induced redox-inflammatory damage.? Synthetic Secoisolariciresinol Diglucoside at 25 mg/kg b.w., exerts anti h
yperglycemic effect by preventing the liver from peroxidation damage through inhibition of ROS level mediated increased level of enzymatic and non-enzymatic antioxidants.]

>  <CAS>
148244-82-0

>  <Col>
11

>  <Formula>
C32H46O16

>  <ID>
T3415

>  <Index>
730

>  <MOLENAME>
Secoisolariciresinol diglucoside

>  <MolWt>
686.71

>  <Pathways>
Immunology/Inflammation

>  <Plate>
PLATE 010

>  <QR code>
1151478104

>  <Receptor>
ROS

>  <Reference>
1. Tao YL, et al. Appl Microbiol Biotechnol. 2014 Mar;98(6):2519-31.

>  <Row>
A

>  <SMILES>
COC1=C(C=CC(=C1)CC(COC2C(C(C(C(O2)CO)O)O)O)C(CC3=CC(=C(C=C3)O)OC)COC4C(C(C(C(O4)CO)O)O)O)O

>  <Target>
ROS inhibitor

>  <Weight>
10.2mg

$$$$
Lab-1.sdf
  ChemDraw05232018482D

 11 11  0  0  0  0  0  0  0  0999 V2000
    1.0717    0.0000    0.0000 C   0  0  0  0  0  0  0  0  0  0  0  0
    0.3573    0.0000    0.0000 C   0  0  0  0  0  0  0  0  0  0  0  0
   -0.3572    0.0000    0.0000 C   0  0  0  0  0  0  0  0  0  0  0  0
   -0.3572    0.0000    0.0000 C   0  0  0  0  0  0  0  0  0  0  0  0
    0.3573    0.0000    0.0000 C   0  0  0  0  0  0  0  0  0  0  0  0
    1.0717    0.0000    0.0000 N   0  0  0  0  0  0  0  0  0  0  0  0
    0.3573    0.0000    0.0000 C   0  0  0  0  0  0  0  0  0  0  0  0
    1.0717    0.0000    0.0000 O   0  0  0  0  0  0  0  0  0  0  0  0
   -1.0717    0.0000    0.0000 O   0  0  0  0  0  0  0  0  0  0  0  0
   -1.0717    0.0000    0.0000 O   0  0  0  0  0  0  0  0  0  0  0  0
    0.3573    0.0000    0.0000 O   0  0  0  0  0  0  0  0  0  0  0  0
  1  2  1  0      
  2  3  1  0      
  3  4  1  0      
  4  5  1  0      
  5  6  1  0      
  1  6  1  0      
  5  7  1  0      
  7  8  1  0      
  4  9  1  0      
  3 10  1  0      
  2 11  1  0      
M  END
>  <Bioactivity>
1-Deoxynojirimycin inhibites on the activity of the ¦Â-glycosidase LacS from Sulfolobus solfataricus. 1-Deoxynojirimycin has a protective effect against obesity-induced hepatic lipid abnormalities and
 mitochondrial dysfunction.

>  <CAS>
19130-96-2

>  <Col>
2

>  <Formula>
C6H13NO4

>  <ID>
T3675

>  <Index>
731

>  <MOLENAME>
1-Deoxynojirimycin

>  <MolWt>
163.17

>  <Pathways>
Enzyme

>  <Plate>
PLATE 010

>  <QR code>
1151478092

>  <Receptor>
¦Â-glycosidase

>  <Reference>
1. Jiang P, et al. Sci Rep. 2015 Feb 24;5:8563.?

>  <Row>
B

>  <SMILES>
C1C(C(C(C(N1)CO)O)O)O

>  <Target>
¦Â-glycosidase inhibitor

>  <Weight>
10mg

$$$$
Lab-1.sdf
  ChemDraw05232018482D

 17 19  0  0  0  0  0  0  0  0999 V2000
   -1.2064    0.0000    0.0000 C   0  0  0  0  0  0  0  0  0  0  0  0
   -1.3496    0.0000    0.0000 C   0  0  0  0  0  0  0  0  0  0  0  0
   -2.1048    0.0000    0.0000 C   0  0  0  0  0  0  0  0  0  0  0  0
   -2.0099    0.0000    0.0000 C   0  0  0  0  0  0  0  0  0  0  0  0
   -1.1919    0.0000    0.0000 C   0  0  0  0  0  0  0  0  0  0  0  0
   -0.7416    0.0000    0.0000 C   0  0  0  0  0  0  0  0  0  0  0  0
   -0.0512    0.0000    0.0000 C   0  0  0  0  0  0  0  0  0  0  0  0
    0.6957    0.0000    0.0000 C   0  0  0  0  0  0  0  0  0  0  0  0
    1.4472    0.0000    0.0000 C   0  0  0  0  0  0  0  0  0  0  0  0
    1.5411    0.0000    0.0000 C   0  0  0  0  0  0  0  0  0  0  0  0
    2.1048    0.0000    0.0000 C   0  0  0  0  0  0  0  0  0  0  0  0
    0.5077    0.0000    0.0000 C   0  0  0  0  0  0  0  0  0  0  0  0
   -0.1323    0.0000    0.0000 O   0  0  0  0  0  0  0  0  0  0  0  0
    0.0750    0.0000    0.0000 C   0  0  0  0  0  0  0  0  0  0  0  0
   -0.7802    0.0000    0.0000 C   0  0  0  0  0  0  0  0  0  0  0  0
   -1.1884    0.0000    0.0000 C   0  0  0  0  0  0  0  0  0  0  0  0
    1.2707    0.0000    0.0000 O   0  0  0  0  0  0  0  0  0  0  0  0
  1  2  1  0      
  2  3  1  0      
  3  4  1  0      
  4  5  1  0      
  5  6  1  0      
  2  6  1  0      
  6  7  1  0      
  7  8  1  0      
  8  9  2  0      
  9 10  1  0      
  9 11  1  0      
  8 12  1  0      
 12 13  1  0      
  6 13  1  0      
 12 14  1  0      
 14 15  2  0      
  5 15  1  0      
 15 16  1  0      
 12 17  1  0      
M  END
>  <Bioactivity>
Curcumenol, one of the major components of Zedoary turmeric oil, is an antibiotic drug which has anti-Y, anti-inflammation activity.  Curcumenol may be safely used without inducing metabolic drug-drug
 interaction through P450 inhibition

>  <CAS>
19431-84-6

>  <Col>
3

>  <Formula>
C15H22O2

>  <ID>
T3669

>  <Index>
732

>  <MOLENAME>
 Curcumenol

>  <MolWt>
234.3

>  <Pathways>
Metabolism;

>  <Plate>
PLATE 010

>  <QR code>
1151478093

>  <Receptor>
P450

>  <Reference>
1. Hamdi OA, et al. Int J Mol Sci. 2015 Mar 6;16(3):5180-93. 

>  <Row>
B

>  <SMILES>
CC1CCC2C13CC(=C(C)C)C(O3)(C=C2C)O

>  <Target>
P450 inhibitor

>  <Weight>
10.4mg

$$$$
Lab-1.sdf
  ChemDraw05232018482D

 10 10  0  0  0  0  0  0  0  0999 V2000
   -0.3572    0.0000    0.0000 O   0  0  0  0  0  0  0  0  0  0  0  0
    0.3573    0.0000    0.0000 C   0  0  0  0  0  0  0  0  0  0  0  0
    1.0717    0.0000    0.0000 O   0  0  0  0  0  0  0  0  0  0  0  0
    0.3573    0.0000    0.0000 C   0  0  0  0  0  0  0  0  0  0  0  0
    1.0717    0.0000    0.0000 C   0  0  0  0  0  0  0  0  0  0  0  0
    1.0717    0.0000    0.0000 C   0  0  0  0  0  0  0  0  0  0  0  0
    0.3573    0.0000    0.0000 C   0  0  0  0  0  0  0  0  0  0  0  0
   -0.3572    0.0000    0.0000 C   0  0  0  0  0  0  0  0  0  0  0  0
   -0.3572    0.0000    0.0000 C   0  0  0  0  0  0  0  0  0  0  0  0
   -1.0717    0.0000    0.0000 O   0  0  0  0  0  0  0  0  0  0  0  0
  1  2  1  0      
  2  3  2  0      
  2  4  1  0      
  4  5  2  0      
  5  6  1  0      
  6  7  2  0      
  7  8  1  0      
  8  9  2  0      
  4  9  1  0      
  9 10  1  0      
M  END
>  <Bioactivity>
Salicylic acid is a natural product extract from Willow bark, well known as an antiinflammatory inhibitor of cyclooxygenase activity.

>  <CAS>
69-72-7

>  <Col>
4

>  <Formula>
C7H6O3

>  <ID>
T0649

>  <Index>
733

>  <MOLENAME>
Salicylic acid

>  <MolWt>
138.12

>  <Pathways>
Neuroscience

>  <Plate>
PLATE 010

>  <QR code>
1151478094

>  <Receptor>
Prostaglandin G/H synthase

>  <Reference>
1. Moon C, et al. Neurosci Lett. 2004 Feb 12; 356(2):123-6. 

>  <Row>
B

>  <SMILES>
OC(=O)C1=CC=CC=C1O

>  <Target>
COX inhibitor

>  <Weight>
10.3mg

$$$$
Lab-1.sdf
  ChemDraw05232018482D

 14 14  0  0  0  0  0  0  0  0999 V2000
   -1.0717    0.0000    0.0000 N   0  0  0  0  0  0  0  0  0  0  0  0
   -0.3572    0.0000    0.0000 C   0  0  0  0  0  0  0  0  0  0  0  0
    0.3573    0.0000    0.0000 C   0  0  0  0  0  0  0  0  0  0  0  0
    0.3573    0.0000    0.0000 N   0  0  0  0  0  0  0  0  0  0  0  0
    1.0717    0.0000    0.0000 C   0  0  0  0  0  0  0  0  0  0  0  0
    1.0717    0.0000    0.0000 C   0  0  0  0  0  0  0  0  0  0  0  0
    0.3573    0.0000    0.0000 C   0  0  0  0  0  0  0  0  0  0  0  0
    0.3573    0.0000    0.0000 O   0  0  0  0  0  0  0  0  0  0  0  0
   -0.3572    0.0000    0.0000 C   0  0  0  0  0  0  0  0  0  0  0  0
   -1.0717    0.0000    0.0000 O   0  0  0  0  0  0  0  0  0  0  0  0
   -0.3572    0.0000    0.0000 C   0  0  0  0  0  0  0  0  0  0  0  0
   -0.3572    0.0000    0.0000 C   0  0  0  0  0  0  0  0  0  0  0  0
   -1.0717    0.0000    0.0000 O   0  0  0  0  0  0  0  0  0  0  0  0
    0.3573    0.0000    0.0000 O   0  0  0  0  0  0  0  0  0  0  0  0
  1  2  1  0      
  2  3  1  0      
  3  4  1  0      
  4  5  1  0      
  5  6  2  0      
  6  7  1  0      
  7  8  2  0      
  7  9  1  0      
  9 10  1  0      
  9 11  2  0      
  4 11  1  0      
  2 12  1  0      
 12 13  1  0      
 12 14  2  0      
M  END
>  <Bioactivity>
L-Mimosine is a non-protein amino acid, and acts as an iron chelator.

>  <CAS>
500-44-7

>  <Col>
5

>  <Formula>
C8H10N2O4

>  <ID>
T6569

>  <Index>
734

>  <MOLENAME>
L-Mimosine

>  <MolWt>
198.18

>  <Pathways>
Others

>  <Plate>
PLATE 010

>  <QR code>
1151478095

>  <Receptor>
Others

>  <Reference>
1. Chung LC, et al. Am J Physiol Cell Physiol. 2012, 302(4), C676-685.

>  <Row>
B

>  <SMILES>
NC(CN1C=CC(=O)C(O)=C1)C(O)=O

>  <Target>
Others

>  <Weight>
10.3mg

$$$$
Lab-1.sdf
  ChemDraw05232018482D

 10 11  0  0  0  0  0  0  0  0999 V2000
   -1.7064    0.0000    0.0000 C   0  0  0  0  0  0  0  0  0  0  0  0
   -1.2216    0.0000    0.0000 O   0  0  0  0  0  0  0  0  0  0  0  0
   -0.4369    0.0000    0.0000 C   0  0  0  0  0  0  0  0  0  0  0  0
   -0.4369    0.0000    0.0000 C   0  0  0  0  0  0  0  0  0  0  0  0
   -1.2216    0.0000    0.0000 O   0  0  0  0  0  0  0  0  0  0  0  0
    0.2775    0.0000    0.0000 C   0  0  0  0  0  0  0  0  0  0  0  0
    0.9920    0.0000    0.0000 C   0  0  0  0  0  0  0  0  0  0  0  0
    0.9920    0.0000    0.0000 C   0  0  0  0  0  0  0  0  0  0  0  0
    0.2775    0.0000    0.0000 C   0  0  0  0  0  0  0  0  0  0  0  0
    1.7064    0.0000    0.0000 O   0  0  0  0  0  0  0  0  0  0  0  0
  1  2  1  0      
  2  3  1  0      
  3  4  2  0      
  4  5  1  0      
  1  5  1  0      
  4  6  1  0      
  6  7  2  0      
  7  8  1  0      
  8  9  2  0      
  3  9  1  0      
  7 10  1  0      
M  END
>  <Bioactivity>
Sesamol could decrease lung inflammation and lipopolysaccharide (LPS)-induced lung injury in rats.  Sesamol ameliorates inflammatory and oxidative damage by upregulating AMPK activation and Nrf2 signa
ling and blocking the NF-¦ÊB and MAPK signaling pathways and  inhibits melanin biosynthesis by down-regulating tyrosinase activity and melanin production via regulation of gene expression of melanogen
esis-related proteins through modulation of MITF activity, which promotes phosphorylation of p38 and JNK in melan-a cells.

>  <CAS>
533-31-3

>  <Col>
6

>  <Formula>
C7H6O3

>  <ID>
T3676

>  <Index>
735

>  <MOLENAME>
Sesamol?

>  <MolWt>
138.12

>  <Pathways>
NF-¦ÊB/MAPK

>  <Plate>
PLATE 010

>  <QR code>
1151478096

>  <Receptor>
AMPK 

>  <Reference>
1. Wu XL, et al. Inflamm Res. 2015 Aug;64(8):577-88.

>  <Row>
B

>  <SMILES>
C1OC2=C(O1)C=C(C=C2)O

>  <Target>
AMPK activator

>  <Weight>
10.2mg

$$$$
Lab-1.sdf
  ChemDraw05232018482D

 20 22  0  0  0  0  0  0  0  0999 V2000
   -2.8578    0.0000    0.0000 C   0  0  0  0  0  0  0  0  0  0  0  0
   -2.8578    0.0000    0.0000 C   0  0  0  0  0  0  0  0  0  0  0  0
   -2.1434    0.0000    0.0000 C   0  0  0  0  0  0  0  0  0  0  0  0
   -1.4290    0.0000    0.0000 C   0  0  0  0  0  0  0  0  0  0  0  0
   -1.4290    0.0000    0.0000 C   0  0  0  0  0  0  0  0  0  0  0  0
   -2.1434    0.0000    0.0000 C   0  0  0  0  0  0  0  0  0  0  0  0
   -0.7145    0.0000    0.0000 C   0  0  0  0  0  0  0  0  0  0  0  0
   -0.7145    0.0000    0.0000 C   0  0  0  0  0  0  0  0  0  0  0  0
   -0.0001    0.0000    0.0000 C   0  0  0  0  0  0  0  0  0  0  0  0
   -0.0001    0.0000    0.0000 O   0  0  0  0  0  0  0  0  0  0  0  0
    0.7145    0.0000    0.0000 C   0  0  0  0  0  0  0  0  0  0  0  0
    1.4289    0.0000    0.0000 C   0  0  0  0  0  0  0  0  0  0  0  0
    2.1434    0.0000    0.0000 C   0  0  0  0  0  0  0  0  0  0  0  0
    2.1434    0.0000    0.0000 C   0  0  0  0  0  0  0  0  0  0  0  0
    1.4289    0.0000    0.0000 C   0  0  0  0  0  0  0  0  0  0  0  0
    0.7145    0.0000    0.0000 C   0  0  0  0  0  0  0  0  0  0  0  0
   -0.0001    0.0000    0.0000 O   0  0  0  0  0  0  0  0  0  0  0  0
    2.8578    0.0000    0.0000 O   0  0  0  0  0  0  0  0  0  0  0  0
    1.4289    0.0000    0.0000 O   0  0  0  0  0  0  0  0  0  0  0  0
   -1.4290    0.0000    0.0000 O   0  0  0  0  0  0  0  0  0  0  0  0
  1  2  2  0      
  2  3  1  0      
  3  4  2  0      
  4  5  1  0      
  5  6  2  0      
  1  6  1  0      
  4  7  1  0      
  7  8  2  0      
  8  9  1  0      
  9 10  2  0      
  9 11  1  0      
 11 12  2  0      
 12 13  1  0      
 13 14  2  0      
 14 15  1  0      
 15 16  2  0      
 11 16  1  0      
 16 17  1  0      
  7 17  1  0      
 14 18  1  0      
 12 19  1  0      
  8 20  1  0      
M  END
>  <Bioactivity>
Galangin has anti-proliferation effect on HCC cells. Galangin elicits anti-inflammatory effects on LPS-activated macrophages via the inhibition of ERK, NF-¦ÊB-p65 and proinflammatory gene expression.

>  <CAS>
548-83-4

>  <Col>
7

>  <Formula>
C15H10O5

>  <ID>
T3668

>  <Index>
736

>  <MOLENAME>
Galangin

>  <MolWt>
270.2

>  <Pathways>
PKC/ERK signaling pathway; Immunology/ Inflammation

>  <Plate>
PLATE 010

>  <QR code>
1151478097

>  <Receptor>
ERK; NF-¦ÊB-p6

>  <Reference>
1. Wang Y, et al. Toxicology. 2014 Dec 4;326:9-17. 

>  <Row>
B

>  <SMILES>
C1=CC=C(C=C1)C2=C(C(=O)C3=C(C=C(C=C3O2)O)O)O

>  <Target>
ERK; NF-¦ÊB Inhibitor

>  <Weight>
10.4mg

$$$$
Lab-1.sdf
  ChemDraw05232018482D

 14 14  0  0  0  0  0  0  0  0999 V2000
   -1.0482    0.0000    0.0000 C   0  0  0  0  0  0  0  0  0  0  0  0
   -1.0482    0.0000    0.0000 C   0  0  0  0  0  0  0  0  0  0  0  0
   -0.3337    0.0000    0.0000 C   0  0  0  0  0  0  0  0  0  0  0  0
   -0.3337    0.0000    0.0000 C   0  0  0  0  0  0  0  0  0  0  0  0
   -0.3337    0.0000    0.0000 C   0  0  0  0  0  0  0  0  0  0  0  0
   -0.3337    0.0000    0.0000 C   0  0  0  0  0  0  0  0  0  0  0  0
   -0.3337    0.0000    0.0000 C   0  0  0  0  0  0  0  0  0  0  0  0
   -0.3337    0.0000    0.0000 C   0  0  0  0  0  0  0  0  0  0  0  0
    0.3808    0.0000    0.0000 C   0  0  0  0  0  0  0  0  0  0  0  0
    0.3808    0.0000    0.0000 C   0  0  0  0  0  0  0  0  0  0  0  0
    1.0482    0.0000    0.0000 C   0  0  0  0  0  0  0  0  0  0  0  0
    0.7933    0.0000    0.0000 C   0  0  0  0  0  0  0  0  0  0  0  0
   -0.0317    0.0000    0.0000 C   0  0  0  0  0  0  0  0  0  0  0  0
   -0.2867    0.0000    0.0000 O   0  0  0  0  0  0  0  0  0  0  0  0
  2  1  1  4      
  2  3  2  0      
  3  4  1  0      
  4  5  3  0      
  5  6  1  0      
  6  7  3  0      
  8  7  1  4      
  8  9  2  0      
  9 10  1  0      
 10 11  2  0      
 11 12  1  0      
 12 13  2  0      
 13 14  1  0      
 10 14  1  0      
M  END
>  <Bioactivity>
Atractylodin has high lipase inhibitory activity (IC50?=?39.12??M); Atractylodin possesses strong repellenct activities against T. castaneum adults with a LD50 value of 1.83?¦Ìg/adult, >90% repellency
 was achieved with Atractylodin at a low concentration of 0.63?¦Ìg/cm. 

>  <CAS>
55290-63-6

>  <Col>
8

>  <Formula>
C13H10O

>  <ID>
T3666

>  <Index>
737

>  <MOLENAME>
Atractylodin

>  <MolWt>
182.22

>  <Pathways>
Metabolism

>  <Plate>
PLATE 010

>  <QR code>
1151478098

>  <Receptor>
lipase

>  <Reference>
1. Tao J, et al. Zhongguo Zhong Yao Za Zhi. 2011 Jan;36(1):27-31.

>  <Row>
B

>  <SMILES>
CC=CC#CC#CC=CC1=CC=CO1

>  <Target>
lipase inhibitor

>  <Weight>
10.3mg

$$$$
Lab-1.sdf
  ChemDraw05232018482D

 21 23  0  0  0  0  0  0  0  0999 V2000
    1.3253    0.0000    0.0000 C   0  0  0  0  0  0  0  0  0  0  0  0
    1.4686    0.0000    0.0000 C   0  0  0  0  0  0  0  0  0  0  0  0
    1.8811    0.0000    0.0000 C   0  0  0  0  0  0  0  0  0  0  0  0
    1.4686    0.0000    0.0000 C   0  0  0  0  0  0  0  0  0  0  0  0
    0.6436    0.0000    0.0000 C   0  0  0  0  0  0  0  0  0  0  0  0
    0.2311    0.0000    0.0000 C   0  0  0  0  0  0  0  0  0  0  0  0
    0.6436    0.0000    0.0000 O   0  0  0  0  0  0  0  0  0  0  0  0
   -0.5938    0.0000    0.0000 C   0  0  0  0  0  0  0  0  0  0  0  0
   -1.0063    0.0000    0.0000 C   0  0  0  0  0  0  0  0  0  0  0  0
   -1.8313    0.0000    0.0000 C   0  0  0  0  0  0  0  0  0  0  0  0
   -2.2438    0.0000    0.0000 C   0  0  0  0  0  0  0  0  0  0  0  0
   -1.8313    0.0000    0.0000 C   0  0  0  0  0  0  0  0  0  0  0  0
   -1.0063    0.0000    0.0000 C   0  0  0  0  0  0  0  0  0  0  0  0
   -0.5938    0.0000    0.0000 C   0  0  0  0  0  0  0  0  0  0  0  0
    0.2311    0.0000    0.0000 C   0  0  0  0  0  0  0  0  0  0  0  0
    0.6436    0.0000    0.0000 C   0  0  0  0  0  0  0  0  0  0  0  0
    0.2311    0.0000    0.0000 O   0  0  0  0  0  0  0  0  0  0  0  0
    1.4686    0.0000    0.0000 O   0  0  0  0  0  0  0  0  0  0  0  0
    1.8811    0.0000    0.0000 C   0  0  0  0  0  0  0  0  0  0  0  0
   -1.0063    0.0000    0.0000 O   0  0  0  0  0  0  0  0  0  0  0  0
    2.2438    0.0000    0.0000 C   0  0  0  0  0  0  0  0  0  0  0  0
  1  2  1  0      
  2  3  1  0      
  3  4  2  0      
  4  5  1  0      
  5  6  2  0      
  6  7  1  0      
  2  7  1  0      
  6  8  1  0      
  8  9  2  0      
  9 10  1  0      
 10 11  2  0      
 11 12  1  0      
 12 13  2  0      
  8 13  1  0      
 13 14  1  0      
 14 15  2  0      
  5 15  1  0      
 15 16  1  0      
 16 17  2  0      
 16 18  1  0      
 18 19  1  0      
 14 20  1  0      
  2 21  1  0      
M  END
>  <Bioactivity>
Mollugin may be a JAK2 inhibitor and inhibits LPS-induced inflammatory responses by blocking the activation of the JAK-STAT pathway. Mollugin as a candidate for a chemotherapeutic agent in OSCCs via t
he upregulation of the HO-1 and Nrf2 pathways and the downregulation of NF- ¦Ê B.  Mollugin may be a novel therapeutic candidate for bone loss-associated disorders including osteoporosis, rheumatoid a
rthritis, and periodontitis. Also, it has antiY efficacy, can modulate the HER2 pathway in HER2-overexpressing Y cells with a potential role in the treatment and prevention of human breast and ovarian
 Y with HER2 overexpression.

>  <CAS>
55481-88-4

>  <Col>
9

>  <Formula>
C17H16O4

>  <ID>
T3673

>  <Index>
738

>  <MOLENAME>
Mollugin

>  <MolWt>
284.3

>  <Pathways>
JAK/STAT Signaling;

>  <Plate>
PLATE 010

>  <QR code>
1151478099

>  <Receptor>
JAK2; HER2

>  <Reference>
1. Zhang L, et al. Biochem Biophys Res Commun. 2014 Jul 18;450(1):247-54. 

>  <Row>
B

>  <SMILES>
CC1(C=CC2=C(O1)C3=CC=CC=C3C(=C2C(=O)OC)O)C

>  <Target>
JAK inhibitor?

>  <Weight>
10.2mg

$$$$
Lab-1.sdf
  ChemDraw05232018482D

 24 24  0  0  0  0  0  0  0  0999 V2000
    0.0325    0.0000    0.0000 O   0  0  0  0  0  0  0  0  0  0  0  0
    2.3896    0.0000    0.0000 O   0  0  0  0  0  0  0  0  0  0  0  0
   -3.2151    0.0000    0.0000 O   0  0  0  0  0  0  0  0  0  0  0  0
   -2.5006    0.0000    0.0000 C   0  0  0  0  0  0  0  0  0  0  0  0
   -2.5006    0.0000    0.0000 C   0  0  0  0  0  0  0  0  0  0  0  0
   -1.7862    0.0000    0.0000 C   0  0  0  0  0  0  0  0  0  0  0  0
   -1.7862    0.0000    0.0000 O   0  0  0  0  0  0  0  0  0  0  0  0
   -1.0717    0.0000    0.0000 C   0  0  0  0  0  0  0  0  0  0  0  0
   -1.0717    0.0000    0.0000 C   0  0  0  0  0  0  0  0  0  0  0  0
   -0.3572    0.0000    0.0000 O   0  0  0  0  0  0  0  0  0  0  0  0
    0.3573    0.0000    0.0000 C   0  0  0  0  0  0  0  0  0  0  0  0
    0.3573    0.0000    0.0000 C   0  0  0  0  0  0  0  0  0  0  0  0
    1.0717    0.0000    0.0000 O   0  0  0  0  0  0  0  0  0  0  0  0
   -0.3572    0.0000    0.0000 C   0  0  0  0  0  0  0  0  0  0  0  0
   -0.3572    0.0000    0.0000 O   0  0  0  0  0  0  0  0  0  0  0  0
    1.0717    0.0000    0.0000 C   0  0  0  0  0  0  0  0  0  0  0  0
    1.0717    0.0000    0.0000 C   0  0  0  0  0  0  0  0  0  0  0  0
    1.7862    0.0000    0.0000 C   0  0  0  0  0  0  0  0  0  0  0  0
    1.7862    0.0000    0.0000 O   0  0  0  0  0  0  0  0  0  0  0  0
    2.5007    0.0000    0.0000 C   0  0  0  0  0  0  0  0  0  0  0  0
    3.2151    0.0000    0.0000 O   0  0  0  0  0  0  0  0  0  0  0  0
    2.5007    0.0000    0.0000 C   0  0  0  0  0  0  0  0  0  0  0  0
    1.7862    0.0000    0.0000 C   0  0  0  0  0  0  0  0  0  0  0  0
   -1.7862    0.0000    0.0000 C   0  0  0  0  0  0  0  0  0  0  0  0
  3  4  1  0      
  4  5  2  0      
  5  6  1  0      
  6  7  1  0      
  6  8  2  0      
  8  9  1  0      
  9 10  1  0      
 10 11  1  0      
 11 12  2  0      
 12 13  1  0      
 12 14  1  0      
  8 14  1  0      
 14 15  2  0      
 11 16  1  0      
 16 17  2  0      
 17 18  1  0      
 18 19  1  0      
 18 20  2  0      
 20 21  1  0      
 20 22  1  0      
 22 23  2  0      
 16 23  1  0      
  9 24  2  0      
  4 24  1  0      
M  END
>  <Bioactivity>
Quercetin, a polyphenolic flavonoid found in a wide variety of plant-based foods, such as apples, onions, berries, and red wine, is utilized in many different cultures for their nervous system and ant
iY effects.

>  <CAS>
6151-25-3

>  <Col>
10

>  <Formula>
C15H10O7?2H2O

>  <ID>
T6630

>  <Index>
739

>  <MOLENAME>
Quercetin Dihydrate

>  <MolWt>
338.27

>  <Pathways>
Others

>  <Plate>
PLATE 010

>  <QR code>
1151478100

>  <Receptor>
Others

>  <Reference>
1. Dajas F, J Ethnopharmacol, 2012, 143(2), 383-396.

>  <Row>
B

>  <SMILES>
O.O.OC1=CC(O)=C2C(OC(=C(O)C2=O)C2=CC(O)=C(O)C=C2)=C1

>  <Target>
Others

>  <Weight>
10.1mg

$$$$
Lab-1.sdf
  ChemDraw05232018482D

 41 45  0  0  0  0  0  0  0  0999 V2000
   -3.2151    0.0000    0.0000 C   0  0  0  0  0  0  0  0  0  0  0  0
   -3.2151    0.0000    0.0000 C   0  0  0  0  0  0  0  0  0  0  0  0
   -3.9296    0.0000    0.0000 C   0  0  0  0  0  0  0  0  0  0  0  0
   -3.9296    0.0000    0.0000 C   0  0  0  0  0  0  0  0  0  0  0  0
   -3.2151    0.0000    0.0000 C   0  0  0  0  0  0  0  0  0  0  0  0
   -2.5006    0.0000    0.0000 C   0  0  0  0  0  0  0  0  0  0  0  0
   -2.5006    0.0000    0.0000 O   0  0  0  0  0  0  0  0  0  0  0  0
   -1.7861    0.0000    0.0000 O   0  0  0  0  0  0  0  0  0  0  0  0
   -1.0717    0.0000    0.0000 C   0  0  0  0  0  0  0  0  0  0  0  0
   -1.0717    0.0000    0.0000 C   0  0  0  0  0  0  0  0  0  0  0  0
   -0.3573    0.0000    0.0000 C   0  0  0  0  0  0  0  0  0  0  0  0
    0.3573    0.0000    0.0000 C   0  0  0  0  0  0  0  0  0  0  0  0
    0.3573    0.0000    0.0000 O   0  0  0  0  0  0  0  0  0  0  0  0
   -0.3573    0.0000    0.0000 C   0  0  0  0  0  0  0  0  0  0  0  0
   -0.3573    0.0000    0.0000 C   0  0  0  0  0  0  0  0  0  0  0  0
   -1.0717    0.0000    0.0000 C   0  0  0  0  0  0  0  0  0  0  0  0
   -1.0717    0.0000    0.0000 C   0  0  0  0  0  0  0  0  0  0  0  0
   -0.3573    0.0000    0.0000 C   0  0  0  0  0  0  0  0  0  0  0  0
    0.3573    0.0000    0.0000 C   0  0  0  0  0  0  0  0  0  0  0  0
    0.3573    0.0000    0.0000 C   0  0  0  0  0  0  0  0  0  0  0  0
    1.0716    0.0000    0.0000 O   0  0  0  0  0  0  0  0  0  0  0  0
    1.7861    0.0000    0.0000 C   0  0  0  0  0  0  0  0  0  0  0  0
    1.7861    0.0000    0.0000 C   0  0  0  0  0  0  0  0  0  0  0  0
    1.0716    0.0000    0.0000 C   0  0  0  0  0  0  0  0  0  0  0  0
    1.0716    0.0000    0.0000 O   0  0  0  0  0  0  0  0  0  0  0  0
    2.5006    0.0000    0.0000 C   0  0  0  0  0  0  0  0  0  0  0  0
    2.5006    0.0000    0.0000 C   0  0  0  0  0  0  0  0  0  0  0  0
    3.2151    0.0000    0.0000 C   0  0  0  0  0  0  0  0  0  0  0  0
    3.9295    0.0000    0.0000 C   0  0  0  0  0  0  0  0  0  0  0  0
    3.9295    0.0000    0.0000 C   0  0  0  0  0  0  0  0  0  0  0  0
    3.2151    0.0000    0.0000 C   0  0  0  0  0  0  0  0  0  0  0  0
    4.6440    0.0000    0.0000 O   0  0  0  0  0  0  0  0  0  0  0  0
   -0.3573    0.0000    0.0000 O   0  0  0  0  0  0  0  0  0  0  0  0
   -1.7861    0.0000    0.0000 O   0  0  0  0  0  0  0  0  0  0  0  0
    1.0716    0.0000    0.0000 C   0  0  0  0  0  0  0  0  0  0  0  0
    1.7861    0.0000    0.0000 O   0  0  0  0  0  0  0  0  0  0  0  0
   -0.3573    0.0000    0.0000 O   0  0  0  0  0  0  0  0  0  0  0  0
   -1.7861    0.0000    0.0000 O   0  0  0  0  0  0  0  0  0  0  0  0
   -3.2151    0.0000    0.0000 O   0  0  0  0  0  0  0  0  0  0  0  0
   -4.6440    0.0000    0.0000 O   0  0  0  0  0  0  0  0  0  0  0  0
   -4.6440    0.0000    0.0000 O   0  0  0  0  0  0  0  0  0  0  0  0
  1  2  1  0      
  2  3  1  0      
  3  4  1  0      
  4  5  1  0      
  5  6  1  0      
  6  7  1  0      
  2  7  1  0      
  6  8  1  0      
  8  9  1  0      
  9 10  1  0      
 10 11  1  0      
 11 12  1  0      
 12 13  1  0      
 13 14  1  0      
  9 14  1  0      
 14 15  1  0      
 15 16  2  0      
 16 17  1  0      
 17 18  2  0      
 18 19  1  0      
 19 20  2  0      
 15 20  1  0      
 20 21  1  0      
 21 22  1  0      
 22 23  2  0      
 23 24  1  0      
 19 24  1  0      
 24 25  2  0      
 22 26  1  0      
 26 27  2  0      
 27 28  1  0      
 28 29  2  0      
 29 30  1  0      
 30 31  2  0      
 26 31  1  0      
 29 32  1  0      
 18 33  1  0      
 16 34  1  0      
 12 35  1  0      
 35 36  1  0      
 11 37  1  0      
 10 38  1  0      
  5 39  1  0      
  4 40  1  0      
  3 41  1  0      
M  END
>  <Bioactivity>
Vitexin-2''-O-rhamnoside contributes to the protection against H?O? -mediated oxidative stress damage and could be safely used for a wide range of concentrations.

>  <CAS>
64820-99-1

>  <Col>
11

>  <Formula>
C27H30O14

>  <ID>
T3671

>  <Index>
740

>  <MOLENAME>
Vitexin-2''-O-rhamnoside

>  <MolWt>
578.52

>  <Pathways>
Others

>  <Plate>
PLATE 010

>  <QR code>
1151478101

>  <Receptor>
Others

>  <Reference>
1. Gao Y, et al. Biomed Chromatogr. 2016 Feb;30(2):111-6.

>  <Row>
B

>  <SMILES>
CC1C(C(C(C(O1)OC2C(C(C(OC2C3=C(C=C(C4=C3OC(=CC4=O)C5=CC=C(C=C5)O)O)O)CO)O)O)O)O)O

>  <Target>
Others

>  <Weight>
10.1mg

$$$$
Lab-1.sdf
  ChemDraw05232018482D

 43 46  0  0  0  0  0  0  0  0999 V2000
    2.1434    0.0000    0.0000 C   0  0  0  0  0  0  0  0  0  0  0  0
    2.1434    0.0000    0.0000 C   0  0  0  0  0  0  0  0  0  0  0  0
    1.4289    0.0000    0.0000 C   0  0  0  0  0  0  0  0  0  0  0  0
    0.7144    0.0000    0.0000 C   0  0  0  0  0  0  0  0  0  0  0  0
    0.7144    0.0000    0.0000 C   0  0  0  0  0  0  0  0  0  0  0  0
    1.4289    0.0000    0.0000 C   0  0  0  0  0  0  0  0  0  0  0  0
    1.4289    0.0000    0.0000 C   0  0  0  0  0  0  0  0  0  0  0  0
    2.1434    0.0000    0.0000 C   0  0  0  0  0  0  0  0  0  0  0  0
    2.1434    0.0000    0.0000 C   0  0  0  0  0  0  0  0  0  0  0  0
    1.4289    0.0000    0.0000 C   0  0  0  0  0  0  0  0  0  0  0  0
    0.7144    0.0000    0.0000 C   0  0  0  0  0  0  0  0  0  0  0  0
   -0.0000    0.0000    0.0000 C   0  0  0  0  0  0  0  0  0  0  0  0
   -0.0000    0.0000    0.0000 C   0  0  0  0  0  0  0  0  0  0  0  0
   -0.7145    0.0000    0.0000 O   0  0  0  0  0  0  0  0  0  0  0  0
    0.7144    0.0000    0.0000 C   0  0  0  0  0  0  0  0  0  0  0  0
    1.4289    0.0000    0.0000 C   0  0  0  0  0  0  0  0  0  0  0  0
    2.1434    0.0000    0.0000 O   0  0  0  0  0  0  0  0  0  0  0  0
    0.3271    0.0000    0.0000 C   0  0  0  0  0  0  0  0  0  0  0  0
    0.7643    0.0000    0.0000 C   0  0  0  0  0  0  0  0  0  0  0  0
    0.3770    0.0000    0.0000 C   0  0  0  0  0  0  0  0  0  0  0  0
   -0.4475    0.0000    0.0000 C   0  0  0  0  0  0  0  0  0  0  0  0
   -0.8847    0.0000    0.0000 C   0  0  0  0  0  0  0  0  0  0  0  0
   -0.4974    0.0000    0.0000 O   0  0  0  0  0  0  0  0  0  0  0  0
   -1.7092    0.0000    0.0000 C   0  0  0  0  0  0  0  0  0  0  0  0
   -2.0965    0.0000    0.0000 O   0  0  0  0  0  0  0  0  0  0  0  0
   -0.8348    0.0000    0.0000 O   0  0  0  0  0  0  0  0  0  0  0  0
    0.8142    0.0000    0.0000 O   0  0  0  0  0  0  0  0  0  0  0  0
    1.5888    0.0000    0.0000 O   0  0  0  0  0  0  0  0  0  0  0  0
    1.1018    0.0000    0.0000 O   0  0  0  0  0  0  0  0  0  0  0  0
   -0.7145    0.0000    0.0000 C   0  0  0  0  0  0  0  0  0  0  0  0
   -0.7145    0.0000    0.0000 C   0  0  0  0  0  0  0  0  0  0  0  0
   -1.4290    0.0000    0.0000 C   0  0  0  0  0  0  0  0  0  0  0  0
   -2.1434    0.0000    0.0000 C   0  0  0  0  0  0  0  0  0  0  0  0
   -2.1434    0.0000    0.0000 C   0  0  0  0  0  0  0  0  0  0  0  0
   -1.4290    0.0000    0.0000 O   0  0  0  0  0  0  0  0  0  0  0  0
   -2.8579    0.0000    0.0000 C   0  0  0  0  0  0  0  0  0  0  0  0
   -2.8579    0.0000    0.0000 O   0  0  0  0  0  0  0  0  0  0  0  0
   -2.8579    0.0000    0.0000 O   0  0  0  0  0  0  0  0  0  0  0  0
   -1.4290    0.0000    0.0000 O   0  0  0  0  0  0  0  0  0  0  0  0
   -0.0000    0.0000    0.0000 O   0  0  0  0  0  0  0  0  0  0  0  0
    0.7144    0.0000    0.0000 O   0  0  0  0  0  0  0  0  0  0  0  0
    2.8579    0.0000    0.0000 O   0  0  0  0  0  0  0  0  0  0  0  0
    1.4289    0.0000    0.0000 O   0  0  0  0  0  0  0  0  0  0  0  0
  1  2  2  0      
  2  3  1  0      
  3  4  2  0      
  4  5  1  0      
  5  6  2  0      
  1  6  1  0      
  7  6  1  4      
  7  8  2  0      
  8  9  1  0      
  9 10  2  0      
 10 11  1  0      
 11 12  2  0      
 12 13  1  0      
 13 14  2  0      
 13 15  1  0      
 15 16  1  0      
 10 16  1  0      
 16 17  2  0      
 15 18  1  0      
 18 19  1  0      
 19 20  1  0      
 20 21  1  0      
 21 22  1  0      
 22 23  1  0      
 18 23  1  0      
 22 24  1  0      
 24 25  1  0      
 21 26  1  0      
 20 27  1  0      
 19 28  1  0      
 15 29  1  0      
 12 30  1  0      
 30 31  1  0      
 31 32  1  0      
 32 33  1  0      
 33 34  1  0      
 34 35  1  0      
 30 35  1  0      
 34 36  1  0      
 36 37  1  0      
 33 38  1  0      
 32 39  1  0      
 31 40  1  0      
 11 41  1  0      
  9 42  1  4      
  3 43  1  0      
M  END
>  <Bioactivity>
Hydroxysafflor yellow A inhibited adipogenesis by increasing HSL promoter activities.  Hydroxysafflor yellow A can effectively protect the liver from long-term alcohol injury by enhancing antioxidant
 capacity and inhibiting the expression of TGF-¦Â. It prevents steroid-induced avascular necrosis of femoral head by inhibiting primary bone marrow-derived mesenchymal stromal cells. Also, Hydroxysaff
lor yellow A has anti-tumor effects.

>  <CAS>
78281-02-4

>  <Col>
2

>  <Formula>
C27H32O16

>  <ID>
T3674

>  <Index>
741

>  <MOLENAME>
Hydroxysafflor yellow A

>  <MolWt>
612.53338

>  <Pathways>
Stem Cells;Immunology/Inflammation; angiogenesis

>  <Plate>
PLATE 010

>  <QR code>
1151478089

>  <Receptor>
TGF-¦Â

>  <Reference>
1. Zhu HJ, et al. Cytotechnology. 2015 Oct;67(5):885-92.

>  <Row>
C

>  <SMILES>
C1=CC(=CC=C1C=CC(=C2C(=C(C(=O)C(C2=O)(C3C(C(C(C(O3)CO)O)O)O)O)C4C(C(C(C(O4)CO)O)O)O)O)O)O

>  <Target>
ERK/MAPK; NF-¦ÊB; TGF-¦Â inhibitor

>  <Weight>
10.3mg

$$$$
Lab-1.sdf
  ChemDraw05232018482D

 40 44  0  0  0  0  0  0  0  0999 V2000
    6.0326    0.0000    0.0000 C   0  0  0  0  0  0  0  0  0  0  0  0
    5.3181    0.0000    0.0000 O   0  0  0  0  0  0  0  0  0  0  0  0
    4.6036    0.0000    0.0000 C   0  0  0  0  0  0  0  0  0  0  0  0
    4.6036    0.0000    0.0000 C   0  0  0  0  0  0  0  0  0  0  0  0
    3.8892    0.0000    0.0000 C   0  0  0  0  0  0  0  0  0  0  0  0
    3.1748    0.0000    0.0000 C   0  0  0  0  0  0  0  0  0  0  0  0
    3.1748    0.0000    0.0000 C   0  0  0  0  0  0  0  0  0  0  0  0
    3.8892    0.0000    0.0000 C   0  0  0  0  0  0  0  0  0  0  0  0
    2.4603    0.0000    0.0000 C   0  0  0  0  0  0  0  0  0  0  0  0
    2.4603    0.0000    0.0000 O   0  0  0  0  0  0  0  0  0  0  0  0
    1.7458    0.0000    0.0000 C   0  0  0  0  0  0  0  0  0  0  0  0
    1.0314    0.0000    0.0000 C   0  0  0  0  0  0  0  0  0  0  0  0
    0.3169    0.0000    0.0000 C   0  0  0  0  0  0  0  0  0  0  0  0
    0.3169    0.0000    0.0000 C   0  0  0  0  0  0  0  0  0  0  0  0
    1.0314    0.0000    0.0000 C   0  0  0  0  0  0  0  0  0  0  0  0
    1.7458    0.0000    0.0000 C   0  0  0  0  0  0  0  0  0  0  0  0
    2.4603    0.0000    0.0000 O   0  0  0  0  0  0  0  0  0  0  0  0
   -0.3975    0.0000    0.0000 O   0  0  0  0  0  0  0  0  0  0  0  0
   -0.3975    0.0000    0.0000 C   0  0  0  0  0  0  0  0  0  0  0  0
   -0.3975    0.0000    0.0000 C   0  0  0  0  0  0  0  0  0  0  0  0
   -1.1119    0.0000    0.0000 C   0  0  0  0  0  0  0  0  0  0  0  0
   -1.8264    0.0000    0.0000 C   0  0  0  0  0  0  0  0  0  0  0  0
   -1.8264    0.0000    0.0000 C   0  0  0  0  0  0  0  0  0  0  0  0
   -1.1119    0.0000    0.0000 O   0  0  0  0  0  0  0  0  0  0  0  0
   -2.5409    0.0000    0.0000 C   0  0  0  0  0  0  0  0  0  0  0  0
   -3.2554    0.0000    0.0000 O   0  0  0  0  0  0  0  0  0  0  0  0
   -3.9697    0.0000    0.0000 C   0  0  0  0  0  0  0  0  0  0  0  0
   -4.7234    0.0000    0.0000 C   0  0  0  0  0  0  0  0  0  0  0  0
   -5.2754    0.0000    0.0000 C   0  0  0  0  0  0  0  0  0  0  0  0
   -4.8629    0.0000    0.0000 C   0  0  0  0  0  0  0  0  0  0  0  0
   -4.0560    0.0000    0.0000 O   0  0  0  0  0  0  0  0  0  0  0  0
   -5.9479    0.0000    0.0000 C   0  0  0  0  0  0  0  0  0  0  0  0
   -5.8703    0.0000    0.0000 O   0  0  0  0  0  0  0  0  0  0  0  0
   -6.0326    0.0000    0.0000 O   0  0  0  0  0  0  0  0  0  0  0  0
   -4.8949    0.0000    0.0000 O   0  0  0  0  0  0  0  0  0  0  0  0
   -2.5409    0.0000    0.0000 O   0  0  0  0  0  0  0  0  0  0  0  0
   -1.1119    0.0000    0.0000 O   0  0  0  0  0  0  0  0  0  0  0  0
    0.3169    0.0000    0.0000 O   0  0  0  0  0  0  0  0  0  0  0  0
    1.0314    0.0000    0.0000 O   0  0  0  0  0  0  0  0  0  0  0  0
    5.3181    0.0000    0.0000 O   0  0  0  0  0  0  0  0  0  0  0  0
  1  2  1  0      
  2  3  1  0      
  3  4  2  0      
  4  5  1  0      
  5  6  2  0      
  6  7  1  0      
  7  8  2  0      
  3  8  1  0      
  7  9  1  0      
  9 10  2  0      
  9 11  1  0      
 11 12  2  0      
 12 13  1  0      
 13 14  2  0      
 14 15  1  0      
 15 16  2  0      
 11 16  1  0      
 16 17  1  0      
  6 17  1  0      
 14 18  1  0      
 13 19  1  0      
 19 20  1  0      
 20 21  1  0      
 21 22  1  0      
 22 23  1  0      
 23 24  1  0      
 19 24  1  0      
 23 25  1  0      
 25 26  1  0      
 26 27  1  0      
 27 28  1  0      
 28 29  1  0      
 29 30  1  0      
 30 31  1  0      
 27 31  1  0      
 29 32  1  0      
 32 33  1  0      
 29 34  1  0      
 28 35  1  0      
 22 36  1  0      
 21 37  1  0      
 20 38  1  0      
 12 39  1  0      
  4 40  1  0      
M  END
>  <Bioactivity>
Polygalaxanthone III can significantly inhibit chlorzoxazone 6-hydroxylation catalyzed by CYP2E1.

>  <CAS>
162857-78-5

>  <Col>
3

>  <Formula>
C25H28O15

>  <ID>
T3696

>  <Index>
742

>  <MOLENAME>
polygalaxanthone III

>  <MolWt>
568.39

>  <Pathways>
Others

>  <Plate>
PLATE 010

>  <QR code>
1151478088

>  <Receptor>
Others

>  <Reference>
1. Lv C, et al. J Sep Sci. 2014 May;37(9-10):1103-10.

>  <Row>
C

>  <SMILES>
COC1=C(C=C2C(=C1)C(=O)C3=C(C(=C(C=C3O2)O)C4C(C(C(C(O4)COC5C(C(CO5)(CO)O)O)O)O)O)O)O

>  <Target>
Others

>  <Weight>
10.1mg

$$$$
Lab-1.sdf
  ChemDraw05232018482D

 15 15  0  0  0  0  0  0  0  0999 V2000
   -0.7145    0.0000    0.0000 C   0  0  0  0  0  0  0  0  0  0  0  0
   -0.7145    0.0000    0.0000 C   0  0  0  0  0  0  0  0  0  0  0  0
    0.0000    0.0000    0.0000 C   0  0  0  0  0  0  0  0  0  0  0  0
    0.0000    0.0000    0.0000 C   0  0  0  0  0  0  0  0  0  0  0  0
    0.7145    0.0000    0.0000 C   0  0  0  0  0  0  0  0  0  0  0  0
    0.7145    0.0000    0.0000 C   0  0  0  0  0  0  0  0  0  0  0  0
    0.0000    0.0000    0.0000 C   0  0  0  0  0  0  0  0  0  0  0  0
   -0.7145    0.0000    0.0000 C   0  0  0  0  0  0  0  0  0  0  0  0
   -0.7145    0.0000    0.0000 C   0  0  0  0  0  0  0  0  0  0  0  0
   -1.4289    0.0000    0.0000 O   0  0  0  0  0  0  0  0  0  0  0  0
   -1.4289    0.0000    0.0000 C   0  0  0  0  0  0  0  0  0  0  0  0
    0.0000    0.0000    0.0000 O   0  0  0  0  0  0  0  0  0  0  0  0
    0.7145    0.0000    0.0000 C   0  0  0  0  0  0  0  0  0  0  0  0
    1.4289    0.0000    0.0000 O   0  0  0  0  0  0  0  0  0  0  0  0
    1.4289    0.0000    0.0000 C   0  0  0  0  0  0  0  0  0  0  0  0
  2  1  1  4      
  2  3  2  0      
  3  4  1  0      
  4  5  2  0      
  5  6  1  0      
  6  7  2  0      
  7  8  1  0      
  8  9  2  0      
  4  9  1  0      
  9 10  1  0      
 10 11  1  0      
  7 12  1  0      
 12 13  1  0      
  6 14  1  0      
 14 15  1  0      
M  END
>  <Bioactivity>
¦Á-Asarone is a component of certain essential oils used in traditional Chinese herbal medicine. Although carcinogenic, ¦Á-asarone has been shown to be neuroprotective and radioprotective in mice when
 given at 50 mg/kg.?It also lowers serum cholesterol in rats, specifically reducing LDL-cholesterol levels and cholesterol saturation index, by directly inhibiting HMG-CoA reductase (IC50?= 3 mM).?¦Á-
Asarone also directly interacts with and inhibits certain isoforms of cytochrome P450 (IC50?= 55.2 and 65.2 ¦Ìg/ml for CYP2D6 and CYP3A4, respectively).

>  <CAS>
2883-98-9

>  <Col>
4

>  <Formula>
C12H16O3

>  <ID>
T3698

>  <Index>
743

>  <MOLENAME>
alpha-Asarone

>  <MolWt>
208.3

>  <Pathways>
Metabolism

>  <Plate>
PLATE 010

>  <QR code>
1151478087

>  <Receptor>
HMGCR; CYP2D6; CYP3A4

>  <Reference>
1. Lim¨®n, L, et al. Neuroscience Letters 453(2), 2009, 98-103.

>  <Row>
C

>  <SMILES>
CC=CC1=CC(=C(C=C1OC)OC)OC

>  <Target>
HMG-CoA Reductase inhibitor

>  <Weight>
10.4mg

$$$$
Lab-1.sdf
  ChemDraw05232018482D

 27 26  0  0  0  0  0  0  0  0999 V2000
   -4.4738    0.0000    0.0000 O   0  0  0  0  0  0  0  0  0  0  0  0
   -2.1167    0.0000    0.0000 O   0  0  0  0  0  0  0  0  0  0  0  0
   -4.4738    0.0000    0.0000 O   0  0  0  0  0  0  0  0  0  0  0  0
    4.4738    0.0000    0.0000 C   0  0  0  0  0  0  0  0  0  0  0  0
    3.8607    0.0000    0.0000 C   0  0  0  0  0  0  0  0  0  0  0  0
    4.4738    0.0000    0.0000 C   0  0  0  0  0  0  0  0  0  0  0  0
    3.3758    0.0000    0.0000 S   0  0  0  0  0  0  0  0  0  0  0  0
    2.5912    0.0000    0.0000 C   0  0  0  0  0  0  0  0  0  0  0  0
    1.7662    0.0000    0.0000 C   0  0  0  0  0  0  0  0  0  0  0  0
    1.1828    0.0000    0.0000 N   0  0  0  0  0  0  0  0  0  0  0  0
    0.3859    0.0000    0.0000 C   0  0  0  0  0  0  0  0  0  0  0  0
    0.1724    0.0000    0.0000 O   0  0  0  0  0  0  0  0  0  0  0  0
   -0.1974    0.0000    0.0000 C   0  0  0  0  0  0  0  0  0  0  0  0
    0.0161    0.0000    0.0000 N   0  0  0  0  0  0  0  0  0  0  0  0
   -0.9943    0.0000    0.0000 C   0  0  0  0  0  0  0  0  0  0  0  0
   -1.5777    0.0000    0.0000 C   0  0  0  0  0  0  0  0  0  0  0  0
   -2.3746    0.0000    0.0000 C   0  0  0  0  0  0  0  0  0  0  0  0
   -2.5881    0.0000    0.0000 C   0  0  0  0  0  0  0  0  0  0  0  0
   -2.0047    0.0000    0.0000 C   0  0  0  0  0  0  0  0  0  0  0  0
   -1.2078    0.0000    0.0000 C   0  0  0  0  0  0  0  0  0  0  0  0
    1.7662    0.0000    0.0000 C   0  0  0  0  0  0  0  0  0  0  0  0
    1.1828    0.0000    0.0000 O   0  0  0  0  0  0  0  0  0  0  0  0
    2.5912    0.0000    0.0000 N   0  0  0  0  0  0  0  0  0  0  0  0
    3.3758    0.0000    0.0000 C   0  0  0  0  0  0  0  0  0  0  0  0
    3.6308    0.0000    0.0000 C   0  0  0  0  0  0  0  0  0  0  0  0
    3.0787    0.0000    0.0000 O   0  0  0  0  0  0  0  0  0  0  0  0
    4.4377    0.0000    0.0000 O   0  0  0  0  0  0  0  0  0  0  0  0
  4  5  1  0      
  5  6  1  0      
  5  7  1  0      
  7  8  1  0      
  8  9  1  0      
  9 10  1  0      
 10 11  1  0      
 11 12  2  0      
 11 13  1  0      
 13 14  1  0      
 13 15  1  0      
 15 16  2  0      
 16 17  1  0      
 17 18  2  0      
 18 19  1  0      
 19 20  2  0      
 15 20  1  0      
  9 21  1  0      
 21 22  2  0      
 21 23  1  0      
  8 23  1  0      
 23 24  1  0      
  5 24  1  0      
 24 25  1  0      
 25 26  1  0      
 25 27  2  0      
M  END
>  <Bioactivity>
Ampicillin Trihydrate is a ¦Â-lactam antibiotic, which inhibits bacterial cell-wall synthesis (peptidoglycan cross-linking) by inactivating transpeptidases on the inner surface of the bacterial cell m
embrane

>  <CAS>
7177-48-2

>  <Col>
5

>  <Formula>
C16H19N3O4S?3H2O

>  <ID>
T0814

>  <Index>
744

>  <MOLENAME>
Ampicillin Trihydrate 

>  <MolWt>
403.45

>  <Pathways>
Microbiology & Virology

>  <Plate>
PLATE 010

>  <QR code>
1151478086

>  <Receptor>
¦Â-Lactamase

>  <Reference>
1. Lacy MK, et al. Antimicrob Agents ChemOthers, 1999, 43(3), 672-677.

>  <Row>
C

>  <SMILES>
O.O.O.CC1(C)SC2C(NC(=O)C(N)C3=CC=CC=C3)C(=O)N2C1C(O)=O

>  <Target>
Antibiotic

>  <Weight>
10.5mg

$$$$
Lab-1.sdf
  ChemDraw05232018482D

 21 21  0  0  0  0  0  0  0  0999 V2000
   -5.0011    0.0000    0.0000 C   0  0  0  0  0  0  0  0  0  0  0  0
   -4.2867    0.0000    0.0000 C   0  0  0  0  0  0  0  0  0  0  0  0
   -3.5722    0.0000    0.0000 C   0  0  0  0  0  0  0  0  0  0  0  0
   -2.8578    0.0000    0.0000 C   0  0  0  0  0  0  0  0  0  0  0  0
   -2.1433    0.0000    0.0000 C   0  0  0  0  0  0  0  0  0  0  0  0
   -1.4289    0.0000    0.0000 C   0  0  0  0  0  0  0  0  0  0  0  0
   -0.7145    0.0000    0.0000 C   0  0  0  0  0  0  0  0  0  0  0  0
    0.0000    0.0000    0.0000 C   0  0  0  0  0  0  0  0  0  0  0  0
    0.7145    0.0000    0.0000 C   0  0  0  0  0  0  0  0  0  0  0  0
    1.4290    0.0000    0.0000 C   0  0  0  0  0  0  0  0  0  0  0  0
    2.1433    0.0000    0.0000 C   0  0  0  0  0  0  0  0  0  0  0  0
    2.8578    0.0000    0.0000 C   0  0  0  0  0  0  0  0  0  0  0  0
    3.5723    0.0000    0.0000 C   0  0  0  0  0  0  0  0  0  0  0  0
    3.5723    0.0000    0.0000 O   0  0  0  0  0  0  0  0  0  0  0  0
    4.2867    0.0000    0.0000 C   0  0  0  0  0  0  0  0  0  0  0  0
    5.0011    0.0000    0.0000 O   0  0  0  0  0  0  0  0  0  0  0  0
    4.2867    0.0000    0.0000 C   0  0  0  0  0  0  0  0  0  0  0  0
    3.5723    0.0000    0.0000 C   0  0  0  0  0  0  0  0  0  0  0  0
    3.5723    0.0000    0.0000 O   0  0  0  0  0  0  0  0  0  0  0  0
    2.8578    0.0000    0.0000 C   0  0  0  0  0  0  0  0  0  0  0  0
    2.1433    0.0000    0.0000 O   0  0  0  0  0  0  0  0  0  0  0  0
  1  2  1  0      
  2  3  1  0      
  3  4  1  0      
  4  5  1  0      
  5  6  1  0      
  6  7  1  0      
  7  8  1  0      
  8  9  1  0      
  9 10  1  0      
 10 11  1  0      
 11 12  1  0      
 12 13  2  0      
 13 14  1  0      
 13 15  1  0      
 15 16  2  0      
 15 17  1  0      
 17 18  2  0      
 18 19  1  0      
 18 20  1  0      
 12 20  1  0      
 20 21  2  0      
M  END
>  <Bioactivity>
Embelin, a quinone isolated from the Japanese Ardisia herb, is an inhibitor of X-linked inhibitor of apoptosis (XIAP) with IC50 of 4.1 uM.

>  <CAS>
550-24-3

>  <Col>
6

>  <Formula>
C17H26O4

>  <ID>
T6485

>  <Index>
745

>  <MOLENAME>
Embelin

>  <MolWt>
294.39

>  <Pathways>
Apoptosis

>  <Plate>
PLATE 010

>  <QR code>
1151478085

>  <Receptor>
5-LO ; mPGES-1 ; XIAP

>  <Reference>
1. Nikolovska-Coleska Z, et al. J Med Chem, 2004, 47(10), 2430-2440.

>  <Row>
C

>  <SMILES>
CCCCCCCCCCCC1=C(O)C(=O)C=C(O)C1=O

>  <Target>
IAP inhibitor

>  <Weight>
10.1mg

$$$$
Lab-1.sdf
  ChemDraw05232018482D

 53 56  0  0  0  0  0  0  0  0999 V2000
   -7.8324    0.0000    0.0000 C   0  0  0  0  0  0  0  0  0  0  0  0
   -7.0254    0.0000    0.0000 O   0  0  0  0  0  0  0  0  0  0  0  0
   -6.4734    0.0000    0.0000 C   0  0  0  0  0  0  0  0  0  0  0  0
   -5.6664    0.0000    0.0000 C   0  0  0  0  0  0  0  0  0  0  0  0
   -5.1144    0.0000    0.0000 C   0  0  0  0  0  0  0  0  0  0  0  0
   -5.3694    0.0000    0.0000 C   0  0  0  0  0  0  0  0  0  0  0  0
   -6.1763    0.0000    0.0000 C   0  0  0  0  0  0  0  0  0  0  0  0
   -6.7284    0.0000    0.0000 C   0  0  0  0  0  0  0  0  0  0  0  0
   -7.5353    0.0000    0.0000 O   0  0  0  0  0  0  0  0  0  0  0  0
   -6.4313    0.0000    0.0000 O   0  0  0  0  0  0  0  0  0  0  0  0
   -7.2382    0.0000    0.0000 C   0  0  0  0  0  0  0  0  0  0  0  0
   -4.3074    0.0000    0.0000 C   0  0  0  0  0  0  0  0  0  0  0  0
   -3.7554    0.0000    0.0000 C   0  0  0  0  0  0  0  0  0  0  0  0
   -2.9484    0.0000    0.0000 C   0  0  0  0  0  0  0  0  0  0  0  0
   -2.3964    0.0000    0.0000 O   0  0  0  0  0  0  0  0  0  0  0  0
   -2.6935    0.0000    0.0000 O   0  0  0  0  0  0  0  0  0  0  0  0
   -1.8865    0.0000    0.0000 C   0  0  0  0  0  0  0  0  0  0  0  0
   -1.6316    0.0000    0.0000 C   0  0  0  0  0  0  0  0  0  0  0  0
   -2.1836    0.0000    0.0000 C   0  0  0  0  0  0  0  0  0  0  0  0
   -1.9287    0.0000    0.0000 C   0  0  0  0  0  0  0  0  0  0  0  0
   -1.1217    0.0000    0.0000 C   0  0  0  0  0  0  0  0  0  0  0  0
   -0.5697    0.0000    0.0000 C   0  0  0  0  0  0  0  0  0  0  0  0
   -0.8246    0.0000    0.0000 O   0  0  0  0  0  0  0  0  0  0  0  0
    0.2374    0.0000    0.0000 O   0  0  0  0  0  0  0  0  0  0  0  0
    0.7894    0.0000    0.0000 C   0  0  0  0  0  0  0  0  0  0  0  0
    1.4569    0.0000    0.0000 C   0  0  0  0  0  0  0  0  0  0  0  0
    1.2019    0.0000    0.0000 C   0  0  0  0  0  0  0  0  0  0  0  0
    0.3769    0.0000    0.0000 C   0  0  0  0  0  0  0  0  0  0  0  0
    0.1220    0.0000    0.0000 O   0  0  0  0  0  0  0  0  0  0  0  0
   -0.1081    0.0000    0.0000 C   0  0  0  0  0  0  0  0  0  0  0  0
   -0.9286    0.0000    0.0000 O   0  0  0  0  0  0  0  0  0  0  0  0
    1.6869    0.0000    0.0000 O   0  0  0  0  0  0  0  0  0  0  0  0
    2.2415    0.0000    0.0000 O   0  0  0  0  0  0  0  0  0  0  0  0
    2.8546    0.0000    0.0000 C   0  0  0  0  0  0  0  0  0  0  0  0
    2.6831    0.0000    0.0000 O   0  0  0  0  0  0  0  0  0  0  0  0
    3.6392    0.0000    0.0000 C   0  0  0  0  0  0  0  0  0  0  0  0
    4.2523    0.0000    0.0000 C   0  0  0  0  0  0  0  0  0  0  0  0
    5.0369    0.0000    0.0000 C   0  0  0  0  0  0  0  0  0  0  0  0
    5.2084    0.0000    0.0000 C   0  0  0  0  0  0  0  0  0  0  0  0
    5.9931    0.0000    0.0000 C   0  0  0  0  0  0  0  0  0  0  0  0
    6.6062    0.0000    0.0000 C   0  0  0  0  0  0  0  0  0  0  0  0
    6.4346    0.0000    0.0000 C   0  0  0  0  0  0  0  0  0  0  0  0
    5.6500    0.0000    0.0000 C   0  0  0  0  0  0  0  0  0  0  0  0
    7.0477    0.0000    0.0000 O   0  0  0  0  0  0  0  0  0  0  0  0
    7.8324    0.0000    0.0000 C   0  0  0  0  0  0  0  0  0  0  0  0
    7.3908    0.0000    0.0000 O   0  0  0  0  0  0  0  0  0  0  0  0
    6.1646    0.0000    0.0000 O   0  0  0  0  0  0  0  0  0  0  0  0
    6.9492    0.0000    0.0000 C   0  0  0  0  0  0  0  0  0  0  0  0
    1.3415    0.0000    0.0000 C   0  0  0  0  0  0  0  0  0  0  0  0
    2.1484    0.0000    0.0000 O   0  0  0  0  0  0  0  0  0  0  0  0
   -0.8668    0.0000    0.0000 O   0  0  0  0  0  0  0  0  0  0  0  0
   -2.4807    0.0000    0.0000 O   0  0  0  0  0  0  0  0  0  0  0  0
   -2.9906    0.0000    0.0000 O   0  0  0  0  0  0  0  0  0  0  0  0
  1  2  1  0      
  2  3  1  0      
  3  4  2  0      
  4  5  1  0      
  5  6  2  0      
  6  7  1  0      
  7  8  2  0      
  3  8  1  0      
  8  9  1  0      
  7 10  1  0      
 10 11  1  0      
 12  5  1  4      
 12 13  2  0      
 13 14  1  0      
 14 15  2  0      
 14 16  1  0      
 16 17  1  0      
 17 18  1  0      
 18 19  1  0      
 19 20  1  0      
 20 21  1  0      
 21 22  1  0      
 22 23  1  0      
 18 23  1  0      
 22 24  1  0      
 24 25  1  0      
 25 26  1  0      
 26 27  1  0      
 27 28  1  0      
 28 29  1  0      
 25 29  1  0      
 28 30  1  0      
 30 31  1  0      
 27 32  1  0      
 26 33  1  0      
 33 34  1  0      
 34 35  2  0      
 36 34  1  4      
 36 37  2  0      
 37 38  1  0      
 38 39  2  0      
 39 40  1  0      
 40 41  2  0      
 41 42  1  0      
 42 43  2  0      
 38 43  1  0      
 42 44  1  0      
 44 45  1  0      
 41 46  1  0      
 40 47  1  0      
 47 48  1  0      
 25 49  1  0      
 49 50  1  0      
 21 51  1  0      
 20 52  1  0      
 19 53  1  0      
M  END
>  <Bioactivity>
3,6'-Disinapoyl sucrose has neuroprotective effect and antidepressive activity in rats, at least in part, by increasing expression of cyclic AMP response element (CRE)-binding protein (CREB) and its d
ownstream target protein, brain-derived neurotrophic factor (BDNF).? Treatment with 3,6'-Disinapoyl sucrose (0.6, 6, and 60?¦Ìmol/L) increases cell viability dose dependently, inhibits LDH release, an
d attenuated apoptosis. The mechanisms by which 3,6'-Disinapoyl sucrose protect neuron cells from glutamate-induced excitotoxicity include the downregulation of proapoptotic gene Bax and the upregulat
ion of antiapoptotic gene Bcl-2. 

>  <CAS>
139891-98-8

>  <Col>
7

>  <Formula>
C34H42O19

>  <ID>
T3697

>  <Index>
746

>  <MOLENAME>
3,6'-Disinapoyl sucrose

>  <MolWt>
754.68

>  <Pathways>
Neuroscience; Apoptosis

>  <Plate>
PLATE 010

>  <QR code>
1151478084

>  <Receptor>
CREB; BCL2

>  <Reference>
1. Hu Y, et al. J Mol Neurosci. 2014 Aug;53(4):600-7. 

>  <Row>
C

>  <SMILES>
COC1=CC(=CC(=C1O)OC)C=CC(=O)OCC2C(C(C(C(O2)OC3(C(C(C(O3)CO)O)OC(=O)C=CC4=CC(=C(C(=C4)OC)O)OC)CO)O)O)O

>  <Target>
LDH release inhibitor

>  <Weight>
10.1mg

$$$$
Lab-1.sdf
  ChemDraw05232018482D

 12 12  0  0  0  0  0  0  0  0999 V2000
   -1.1166    0.0000    0.0000 C   0  0  0  0  0  0  0  0  0  0  0  0
   -0.4021    0.0000    0.0000 C   0  0  0  0  0  0  0  0  0  0  0  0
    0.3123    0.0000    0.0000 C   0  0  0  0  0  0  0  0  0  0  0  0
   -0.4021    0.0000    0.0000 C   0  0  0  0  0  0  0  0  0  0  0  0
    0.3412    0.0000    0.0000 C   0  0  0  0  0  0  0  0  0  0  0  0
    0.5246    0.0000    0.0000 C   0  0  0  0  0  0  0  0  0  0  0  0
    1.3290    0.0000    0.0000 O   0  0  0  0  0  0  0  0  0  0  0  0
    0.0104    0.0000    0.0000 C   0  0  0  0  0  0  0  0  0  0  0  0
   -0.8146    0.0000    0.0000 C   0  0  0  0  0  0  0  0  0  0  0  0
   -1.3290    0.0000    0.0000 C   0  0  0  0  0  0  0  0  0  0  0  0
   -1.1455    0.0000    0.0000 C   0  0  0  0  0  0  0  0  0  0  0  0
    0.3682    0.0000    0.0000 O   0  0  0  0  0  0  0  0  0  0  0  0
  1  2  1  0      
  2  3  1  0      
  2  4  1  0      
  4  5  2  0      
  5  6  1  0      
  6  7  2  0      
  6  8  1  0      
  8  9  2  0      
  9 10  1  0      
 10 11  2  0      
  4 11  1  0      
  8 12  1  0      
M  END
>  <Bioactivity>
 beta-Thujaplicin can inhibit ultraviolet B-induced apoptosis in keratinocytes and strongly suggest that the inhibitory mechanism is due to the antioxidant activity of metallothionein induced by the a
gent. Also, ¦Â-Thujaplicin modulates estrogen receptor signaling and inhibits proliferation of human breast cancer cells. 

>  <CAS>
499-44-5

>  <Col>
8

>  <Formula>
C10H12O2

>  <ID>
T3717

>  <Index>
747

>  <MOLENAME>
¦Â-thujaplicin

>  <MolWt>
164.201

>  <Pathways>
Endocrinology/ Hormones

>  <Plate>
PLATE 010

>  <QR code>
1151478083

>  <Receptor>
ER-¦Á

>  <Reference>
1.Ko J, et al. Biosci Biotechnol Biochem. 2015;79(6):1011-7.

>  <Row>
C

>  <SMILES>
CC(C)C1=CC(=O)C(=CC=C1)O

>  <Target>
Estrogen receptor

>  <Weight>
10.2mg

$$$$
Lab-1.sdf
  ChemDraw05232018482D

 24 25  0  0  0  0  0  0  0  0999 V2000
    2.1434    0.0000    0.0000 C   0  0  0  0  0  0  0  0  0  0  0  0
    2.8579    0.0000    0.0000 C   0  0  0  0  0  0  0  0  0  0  0  0
    2.8579    0.0000    0.0000 C   0  0  0  0  0  0  0  0  0  0  0  0
    2.1434    0.0000    0.0000 C   0  0  0  0  0  0  0  0  0  0  0  0
    2.1434    0.0000    0.0000 C   0  0  0  0  0  0  0  0  0  0  0  0
    2.8579    0.0000    0.0000 C   0  0  0  0  0  0  0  0  0  0  0  0
    2.8579    0.0000    0.0000 C   0  0  0  0  0  0  0  0  0  0  0  0
    2.1434    0.0000    0.0000 C   0  0  0  0  0  0  0  0  0  0  0  0
    1.4289    0.0000    0.0000 C   0  0  0  0  0  0  0  0  0  0  0  0
    1.4289    0.0000    0.0000 C   0  0  0  0  0  0  0  0  0  0  0  0
    0.7144    0.0000    0.0000 O   0  0  0  0  0  0  0  0  0  0  0  0
    0.7144    0.0000    0.0000 C   0  0  0  0  0  0  0  0  0  0  0  0
    0.7144    0.0000    0.0000 O   0  0  0  0  0  0  0  0  0  0  0  0
    0.0001    0.0000    0.0000 C   0  0  0  0  0  0  0  0  0  0  0  0
   -0.7144    0.0000    0.0000 C   0  0  0  0  0  0  0  0  0  0  0  0
   -1.4289    0.0000    0.0000 C   0  0  0  0  0  0  0  0  0  0  0  0
   -2.1433    0.0000    0.0000 C   0  0  0  0  0  0  0  0  0  0  0  0
   -2.8578    0.0000    0.0000 C   0  0  0  0  0  0  0  0  0  0  0  0
   -2.8578    0.0000    0.0000 C   0  0  0  0  0  0  0  0  0  0  0  0
   -2.1433    0.0000    0.0000 C   0  0  0  0  0  0  0  0  0  0  0  0
   -1.4289    0.0000    0.0000 C   0  0  0  0  0  0  0  0  0  0  0  0
   -3.5722    0.0000    0.0000 O   0  0  0  0  0  0  0  0  0  0  0  0
    3.5722    0.0000    0.0000 O   0  0  0  0  0  0  0  0  0  0  0  0
    3.5722    0.0000    0.0000 C   0  0  0  0  0  0  0  0  0  0  0  0
  1  2  1  0      
  2  3  2  0      
  3  4  1  0      
  4  5  1  0      
  5  6  2  0      
  6  7  1  0      
  7  8  2  0      
  8  9  1  0      
  9 10  2  0      
  5 10  1  0      
 10 11  1  0      
  9 12  1  0      
 12 13  2  0      
 14 12  1  4      
 14 15  2  0      
 15 16  1  0      
 16 17  2  0      
 17 18  1  0      
 18 19  2  0      
 19 20  1  0      
 20 21  2  0      
 16 21  1  0      
 19 22  1  0      
  6 23  1  0      
  2 24  1  0      
M  END
>  <Bioactivity>
Isobavachalcone has relatively specific for cancer cells.Isobavachalcone has potent anti-inflammatory activity, possible can ameliorate neuronal injury in brain diseases associated with inflammation.
Isobavachalcone significantly inhibits both oligomerization and fibrillization of A¦Â42, whereas bavachinin inhibits fibrillization and leads to off-pathway aggregation.

>  <CAS>
20784-50-3

>  <Col>
9

>  <Formula>
C20H20O4

>  <ID>
T3861

>  <Index>
748

>  <MOLENAME>
Isobacachalcone

>  <MolWt>
324.376

>  <Pathways>
Others

>  <Plate>
PLATE 010

>  <QR code>
1151478082

>  <Receptor>
Others

>  <Reference>
1. Lee KM,et al. Isobavachalcone attenuates lipopolysaccharide-induced ICAM-1 expression in brain endothelial cells through blockade of toll-like receptor 4 signaling pathways. Eur J Pharmacol. 2015 M
ay 5;754:11-8. 

>  <Row>
C

>  <SMILES>
CC(=CCC1=C(C=CC(=C1O)C(=O)C=CC2=CC=C(C=C2)O)O)C

>  <Target>
Others

>  <Weight>
10.4mg

$$$$
Lab-1.sdf
  ChemDraw05232018482D

 45 49  0  0  0  0  0  0  0  0999 V2000
   -0.9452    0.0000    0.0000 C   0  0  0  0  0  0  0  0  0  0  0  0
   -0.4051    0.0000    0.0000 C   0  0  0  0  0  0  0  0  0  0  0  0
   -0.6752    0.0000    0.0000 C   0  0  0  0  0  0  0  0  0  0  0  0
   -0.1351    0.0000    0.0000 C   0  0  0  0  0  0  0  0  0  0  0  0
    0.6752    0.0000    0.0000 C   0  0  0  0  0  0  0  0  0  0  0  0
    0.9452    0.0000    0.0000 C   0  0  0  0  0  0  0  0  0  0  0  0
    0.4051    0.0000    0.0000 O   0  0  0  0  0  0  0  0  0  0  0  0
    1.7553    0.0000    0.0000 O   0  0  0  0  0  0  0  0  0  0  0  0
    2.0254    0.0000    0.0000 C   0  0  0  0  0  0  0  0  0  0  0  0
    1.4853    0.0000    0.0000 O   0  0  0  0  0  0  0  0  0  0  0  0
    2.8355    0.0000    0.0000 C   0  0  0  0  0  0  0  0  0  0  0  0
    3.1056    0.0000    0.0000 C   0  0  0  0  0  0  0  0  0  0  0  0
    3.9158    0.0000    0.0000 C   0  0  0  0  0  0  0  0  0  0  0  0
    4.4559    0.0000    0.0000 C   0  0  0  0  0  0  0  0  0  0  0  0
    4.1858    0.0000    0.0000 C   0  0  0  0  0  0  0  0  0  0  0  0
    3.3756    0.0000    0.0000 C   0  0  0  0  0  0  0  0  0  0  0  0
    4.7259    0.0000    0.0000 O   0  0  0  0  0  0  0  0  0  0  0  0
    5.2660    0.0000    0.0000 O   0  0  0  0  0  0  0  0  0  0  0  0
    4.1858    0.0000    0.0000 O   0  0  0  0  0  0  0  0  0  0  0  0
    1.2153    0.0000    0.0000 O   0  0  0  0  0  0  0  0  0  0  0  0
   -0.4051    0.0000    0.0000 O   0  0  0  0  0  0  0  0  0  0  0  0
   -1.5301    0.0000    0.0000 C   0  0  0  0  0  0  0  0  0  0  0  0
   -0.9755    0.0000    0.0000 O   0  0  0  0  0  0  0  0  0  0  0  0
   -1.7553    0.0000    0.0000 C   0  0  0  0  0  0  0  0  0  0  0  0
   -1.2152    0.0000    0.0000 C   0  0  0  0  0  0  0  0  0  0  0  0
   -1.4853    0.0000    0.0000 C   0  0  0  0  0  0  0  0  0  0  0  0
   -2.2954    0.0000    0.0000 C   0  0  0  0  0  0  0  0  0  0  0  0
   -2.8355    0.0000    0.0000 C   0  0  0  0  0  0  0  0  0  0  0  0
   -2.5655    0.0000    0.0000 C   0  0  0  0  0  0  0  0  0  0  0  0
   -3.1056    0.0000    0.0000 C   0  0  0  0  0  0  0  0  0  0  0  0
   -3.9158    0.0000    0.0000 C   0  0  0  0  0  0  0  0  0  0  0  0
   -4.4559    0.0000    0.0000 C   0  0  0  0  0  0  0  0  0  0  0  0
   -4.1858    0.0000    0.0000 C   0  0  0  0  0  0  0  0  0  0  0  0
   -3.3756    0.0000    0.0000 C   0  0  0  0  0  0  0  0  0  0  0  0
   -2.8355    0.0000    0.0000 C   0  0  0  0  0  0  0  0  0  0  0  0
   -2.0254    0.0000    0.0000 C   0  0  0  0  0  0  0  0  0  0  0  0
   -1.4853    0.0000    0.0000 O   0  0  0  0  0  0  0  0  0  0  0  0
   -1.7553    0.0000    0.0000 O   0  0  0  0  0  0  0  0  0  0  0  0
   -4.7259    0.0000    0.0000 O   0  0  0  0  0  0  0  0  0  0  0  0
   -5.2660    0.0000    0.0000 O   0  0  0  0  0  0  0  0  0  0  0  0
   -4.1858    0.0000    0.0000 O   0  0  0  0  0  0  0  0  0  0  0  0
   -3.6457    0.0000    0.0000 O   0  0  0  0  0  0  0  0  0  0  0  0
   -2.5655    0.0000    0.0000 O   0  0  0  0  0  0  0  0  0  0  0  0
   -0.9452    0.0000    0.0000 O   0  0  0  0  0  0  0  0  0  0  0  0
   -1.2389    0.0000    0.0000 O   0  0  0  0  0  0  0  0  0  0  0  0
  1  2  1  0      
  2  3  1  0      
  3  4  1  0      
  4  5  1  0      
  5  6  1  0      
  6  7  1  0      
  2  7  1  0      
  6  8  1  0      
  8  9  1  0      
  9 10  2  0      
  9 11  1  0      
 11 12  2  0      
 12 13  1  0      
 13 14  2  0      
 14 15  1  0      
 15 16  2  0      
 11 16  1  0      
 15 17  1  0      
 14 18  1  0      
 13 19  1  0      
  5 20  1  0      
  4 21  1  0      
 21 22  1  0      
 22 23  2  0      
 22 24  1  0      
 24 25  2  0      
 25 26  1  0      
 26 27  2  0      
 27 28  1  0      
 28 29  2  0      
 24 29  1  0      
 29 30  1  0      
 30 31  2  0      
 31 32  1  0      
 32 33  2  0      
 33 34  1  0      
 34 35  2  0      
 30 35  1  0      
 35 36  1  0      
 36 37  2  0      
 36 38  1  0      
  1 38  1  0      
 33 39  1  0      
 32 40  1  0      
 31 41  1  0      
 28 42  1  0      
 27 43  1  0      
 26 44  1  0      
  3 45  1  0      
M  END
>  <Bioactivity>
Corilagin has anti-inflammatory activity. Corilagin has a significant antitumour potential and lower toxicity in normal cells in vitro.Corilagin can enhance the cytotoxicity of both cisplatin and do
xorubicin on the Hep3B hepatoma cells.Corilagin has antiviral activity, reduces the cytotoxicity induced by EV71 or CA16 on Vero cells with and IC50 value of 5.6 and 32.33 ¦Ìg/mL, respectively. Cori
lagin shows the potential to protect against HSV-1-induced encephalitis, and the beneficial effects may be mediated by inhibiting TLR2 signaling pathways.Corilagin has antifibrotics property and is p
otentiated in treating idiopathic pulmonary fibrosis(IPF), attenuates bleomycin-induced epithelial injury and fibrosis via inactivation of oxidative stress, proinflammatory cytokine release and NF-¦ÊB
 and TGF-¦Â1 signaling. Solvent:Pyridine, Methanol, Ethanol, etc.

>  <CAS>
23094-69-1

>  <Col>
10

>  <Formula>
C27H22O18

>  <ID>
T3795

>  <Index>
749

>  <MOLENAME>
Corilagin

>  <MolWt>
634.45

>  <Pathways>
Others

>  <Plate>
PLATE 010

>  <QR code>
1151478081

>  <Receptor>
Others

>  <Reference>
1. Wang Z£¬et al. Corilagin attenuates aerosol bleomycin-induced experimental lung injury.

>  <Row>
C

>  <SMILES>
C1C2C(C(C(C(O2)OC(=O)C3=CC(=C(C(=C3)O)O)O)O)OC(=O)C4=CC(=C(C(=C4C5=C(C(=C(C=C5C(=O)O1)O)O)O)O)O)O)O

>  <Target>
Others

>  <Weight>
10.3mg

$$$$
Lab-1.sdf
  ChemDraw05232018482D

 11 11  0  0  0  0  0  0  0  0999 V2000
   -1.0717    0.0000    0.0000 C   0  0  0  0  0  0  0  0  0  0  0  0
   -0.3572    0.0000    0.0000 C   0  0  0  0  0  0  0  0  0  0  0  0
    0.3572    0.0000    0.0000 O   0  0  0  0  0  0  0  0  0  0  0  0
   -0.3572    0.0000    0.0000 C   0  0  0  0  0  0  0  0  0  0  0  0
    0.3572    0.0000    0.0000 C   0  0  0  0  0  0  0  0  0  0  0  0
    0.3572    0.0000    0.0000 C   0  0  0  0  0  0  0  0  0  0  0  0
   -0.3572    0.0000    0.0000 C   0  0  0  0  0  0  0  0  0  0  0  0
   -1.0717    0.0000    0.0000 C   0  0  0  0  0  0  0  0  0  0  0  0
   -1.0717    0.0000    0.0000 C   0  0  0  0  0  0  0  0  0  0  0  0
   -0.3572    0.0000    0.0000 O   0  0  0  0  0  0  0  0  0  0  0  0
    1.0717    0.0000    0.0000 O   0  0  0  0  0  0  0  0  0  0  0  0
  1  2  1  0      
  2  3  2  0      
  2  4  1  0      
  4  5  2  0      
  5  6  1  0      
  6  7  2  0      
  7  8  1  0      
  8  9  2  0      
  4  9  1  0      
  7 10  1  0      
  5 11  1  0      
M  END
>  <Bioactivity>
2', 4'-Dihydroxyacetophenone?is a flavouring ingredient?2', 4'-Dihydroxyacetophenone?belongs to the family of Acetophenones. These are organic compounds containing the?acetophenone?structure.

>  <CAS>
89-84-9

>  <Col>
11

>  <Formula>
C8H8O3

>  <ID>
T3751

>  <Index>
750

>  <MOLENAME>
2,4-Dihydroxyacetophenone

>  <MolWt>
152.15

>  <Pathways>
Others

>  <Plate>
PLATE 010

>  <QR code>
1151478080

>  <Receptor>
Others

>  <Reference>
1.Fujita T,et al.MALDI mass spectrometry using 2,4,6-trihydroxyacetophenone and 2,4-dihydroxyacetophenone with cyclodextrins: suppression of matrix-related ions in low-molecular-weight region.  2010;2
6(7):743-8.

>  <Row>
C

>  <SMILES>
CC(=O)C1=C(C=C(C=C1)O)O

>  <Target>
Others

>  <Weight>
10.3mg

$$$$
Lab-1.sdf
  ChemDraw05232018482D

 32 35  0  0  0  0  0  0  0  0999 V2000
   -3.5106    0.0000    0.0000 C   0  0  0  0  0  0  0  0  0  0  0  0
   -2.9705    0.0000    0.0000 C   0  0  0  0  0  0  0  0  0  0  0  0
   -3.2405    0.0000    0.0000 C   0  0  0  0  0  0  0  0  0  0  0  0
   -2.7005    0.0000    0.0000 C   0  0  0  0  0  0  0  0  0  0  0  0
   -1.8903    0.0000    0.0000 C   0  0  0  0  0  0  0  0  0  0  0  0
   -1.3502    0.0000    0.0000 C   0  0  0  0  0  0  0  0  0  0  0  0
   -0.5401    0.0000    0.0000 C   0  0  0  0  0  0  0  0  0  0  0  0
   -0.2701    0.0000    0.0000 C   0  0  0  0  0  0  0  0  0  0  0  0
   -0.8101    0.0000    0.0000 C   0  0  0  0  0  0  0  0  0  0  0  0
   -0.5401    0.0000    0.0000 C   0  0  0  0  0  0  0  0  0  0  0  0
    0.2700    0.0000    0.0000 C   0  0  0  0  0  0  0  0  0  0  0  0
    0.8101    0.0000    0.0000 C   0  0  0  0  0  0  0  0  0  0  0  0
    0.5401    0.0000    0.0000 C   0  0  0  0  0  0  0  0  0  0  0  0
    1.0802    0.0000    0.0000 C   0  0  0  0  0  0  0  0  0  0  0  0
    1.8903    0.0000    0.0000 C   0  0  0  0  0  0  0  0  0  0  0  0
    2.1603    0.0000    0.0000 C   0  0  0  0  0  0  0  0  0  0  0  0
    1.6203    0.0000    0.0000 C   0  0  0  0  0  0  0  0  0  0  0  0
    1.4927    0.0000    0.0000 C   0  0  0  0  0  0  0  0  0  0  0  0
    2.2247    0.0000    0.0000 C   0  0  0  0  0  0  0  0  0  0  0  0
    2.0406    0.0000    0.0000 C   0  0  0  0  0  0  0  0  0  0  0  0
    1.2521    0.0000    0.0000 C   0  0  0  0  0  0  0  0  0  0  0  0
    1.0680    0.0000    0.0000 O   0  0  0  0  0  0  0  0  0  0  0  0
    0.6477    0.0000    0.0000 O   0  0  0  0  0  0  0  0  0  0  0  0
    2.9705    0.0000    0.0000 C   0  0  0  0  0  0  0  0  0  0  0  0
    3.2405    0.0000    0.0000 C   0  0  0  0  0  0  0  0  0  0  0  0
    3.5106    0.0000    0.0000 C   0  0  0  0  0  0  0  0  0  0  0  0
    0.2700    0.0000    0.0000 C   0  0  0  0  0  0  0  0  0  0  0  0
   -1.6203    0.0000    0.0000 C   0  0  0  0  0  0  0  0  0  0  0  0
   -2.1604    0.0000    0.0000 C   0  0  0  0  0  0  0  0  0  0  0  0
   -1.8903    0.0000    0.0000 C   0  0  0  0  0  0  0  0  0  0  0  0
   -0.1997    0.0000    0.0000 C   0  0  0  0  0  0  0  0  0  0  0  0
   -2.1604    0.0000    0.0000 C   0  0  0  0  0  0  0  0  0  0  0  0
  1  2  1  0      
  2  3  1  0      
  3  4  1  0      
  4  5  1  0      
  5  6  1  0      
  6  7  1  0      
  7  8  1  0      
  8  9  1  0      
  9 10  2  0      
 10 11  1  0      
 11 12  1  0      
 12 13  1  0      
  8 13  1  0      
 13 14  1  0      
 14 15  1  0      
 15 16  1  0      
 16 17  1  0      
 12 17  1  0      
 17 18  1  0      
 17 19  1  0      
 19 20  1  0      
 20 21  1  0      
 21 22  2  0      
 21 23  1  0      
 16 24  1  0      
 24 25  2  0      
 24 26  1  0      
 13 27  1  0      
  9 28  1  0      
  5 28  1  0      
 28 29  1  0      
  2 29  1  0      
 29 30  1  0      
  8 31  1  0      
  5 32  1  0      
M  END
>  <Bioactivity>
Roburic acid and phenethyl-trans-ferulate inhibit COX-1 and COX-2.

>  <CAS>
6812-81-3

>  <Col>
2

>  <Formula>
C30H48O2

>  <ID>
T3883

>  <Index>
751

>  <MOLENAME>
Roburic acid

>  <MolWt>
440.712

>  <Pathways>
Neuroscience

>  <Plate>
PLATE 010

>  <QR code>
1151478068

>  <Receptor>
COX-1;  COX-2

>  <Reference>
1. Cao H,et al. Discovery of cyclooxygenase inhibitors from medicinal plants used to treat inflammation. Pharmacol Res. 2010 Jun;61(6):519-24. 

>  <Row>
D

>  <SMILES>
CC1CCC2(CCC3(C(=CCC4C3(CCC(C4(C)CCC(=O)O)C(=C)C)C)C2C1C)C)C

>  <Target>
COX inhibitor

>  <Weight>
10.2mg

$$$$
Lab-1.sdf
  ChemDraw05232018482D

 11 11  0  0  0  0  0  0  0  0999 V2000
   -0.7144    0.0000    0.0000 C   0  0  0  0  0  0  0  0  0  0  0  0
   -0.7144    0.0000    0.0000 O   0  0  0  0  0  0  0  0  0  0  0  0
    0.0001    0.0000    0.0000 C   0  0  0  0  0  0  0  0  0  0  0  0
    0.7144    0.0000    0.0000 O   0  0  0  0  0  0  0  0  0  0  0  0
    0.0001    0.0000    0.0000 C   0  0  0  0  0  0  0  0  0  0  0  0
    0.7144    0.0000    0.0000 C   0  0  0  0  0  0  0  0  0  0  0  0
    0.7144    0.0000    0.0000 C   0  0  0  0  0  0  0  0  0  0  0  0
    0.0001    0.0000    0.0000 C   0  0  0  0  0  0  0  0  0  0  0  0
   -0.7144    0.0000    0.0000 C   0  0  0  0  0  0  0  0  0  0  0  0
   -0.7144    0.0000    0.0000 C   0  0  0  0  0  0  0  0  0  0  0  0
    0.0001    0.0000    0.0000 O   0  0  0  0  0  0  0  0  0  0  0  0
  1  2  1  0      
  2  3  1  0      
  3  4  2  0      
  3  5  1  0      
  5  6  2  0      
  6  7  1  0      
  7  8  2  0      
  8  9  1  0      
  9 10  2  0      
  5 10  1  0      
  8 11  1  0      
M  END
>  <Bioactivity>
The physiologic effect of?methylparaben?is by means of Increased?Histamine?Release, and Cell-mediated Immunity. Methylparaben is an antimicrobial agent, preservative, flavouring agent. Methylparaben i
s a constituent of cloudberry, yellow passion fruit, white wine, botrytised wine and Bourbon vanilla Methylparaben has been shown to exhibit anti-microbial function.

>  <CAS>
99-76-3

>  <Col>
3

>  <Formula>
C8H8O3

>  <ID>
T3728

>  <Index>
752

>  <MOLENAME>
Methyl 4-hydroxybenzoate 

>  <MolWt>
152.15

>  <Pathways>
Immunology/Inflammation

>  <Plate>
PLATE 010

>  <QR code>
1151478069

>  <Receptor>
anti-microbial 

>  <Reference>
1.Gupta S, et al. AAPS PharmSci. 2003;5(2):E8.

>  <Row>
D

>  <SMILES>
COC(=O)C1=CC=C(C=C1)O

>  <Target>
anti-microbial 

>  <Weight>
10.2mg

$$$$
Lab-1.sdf
  ChemDraw05232018482D

 13 13  0  0  0  0  0  0  0  0999 V2000
    0.7144    0.0000    0.0000 C   0  0  0  0  0  0  0  0  0  0  0  0
    0.0000    0.0000    0.0000 O   0  0  0  0  0  0  0  0  0  0  0  0
    0.0000    0.0000    0.0000 C   0  0  0  0  0  0  0  0  0  0  0  0
    0.7144    0.0000    0.0000 C   0  0  0  0  0  0  0  0  0  0  0  0
    0.7144    0.0000    0.0000 C   0  0  0  0  0  0  0  0  0  0  0  0
    0.0000    0.0000    0.0000 C   0  0  0  0  0  0  0  0  0  0  0  0
   -0.7144    0.0000    0.0000 C   0  0  0  0  0  0  0  0  0  0  0  0
   -0.7144    0.0000    0.0000 C   0  0  0  0  0  0  0  0  0  0  0  0
   -1.4289    0.0000    0.0000 O   0  0  0  0  0  0  0  0  0  0  0  0
   -1.4289    0.0000    0.0000 O   0  0  0  0  0  0  0  0  0  0  0  0
   -1.4289    0.0000    0.0000 C   0  0  0  0  0  0  0  0  0  0  0  0
    1.4289    0.0000    0.0000 C   0  0  0  0  0  0  0  0  0  0  0  0
    1.4289    0.0000    0.0000 O   0  0  0  0  0  0  0  0  0  0  0  0
  1  2  1  0      
  2  3  1  0      
  3  4  2  0      
  4  5  1  0      
  5  6  2  0      
  6  7  1  0      
  7  8  2  0      
  3  8  1  0      
  8  9  1  0      
  7 10  1  0      
 10 11  1  0      
  5 12  1  0      
 12 13  2  0      
M  END
>  <Bioactivity>
Syringaldehyde?is an?organic compound?that occurs in trace amounts widely in nature. Some species of insects use syringaldehyde in their chemical communication systems.?Scolytus multistriatus?uses it 
as a signal to find a host tree during oviposition.

>  <CAS>
134-96-3

>  <Col>
4

>  <Formula>
C9H10O4

>  <ID>
T3747

>  <Index>
753

>  <MOLENAME>
syringaldehyde

>  <MolWt>
182.17

>  <Pathways>
Others

>  <Plate>
PLATE 010

>  <QR code>
1151478070

>  <Receptor>
Others

>  <Reference>
1. Vanillin and Syringaldehyde as Attractants for Scolytus multistriatus (Coleoptera: Scolytidae). Meyer H.J. and Norris D.M., Annals of the Entomological Society of America, 17 July 1967, Volume 60, 
Number 4, pages 858-859.

>  <Row>
D

>  <SMILES>
COC1=CC(=CC(=C1O)OC)C=O

>  <Target>
Others

>  <Weight>
10.4mg

$$$$
Lab-1.sdf
  ChemDraw05232018482D

 24 25  0  0  0  0  0  0  0  0999 V2000
    3.9163    0.0000    0.0000 Na  0  3  0  0  0  0  0  0  0  0  0  0
    3.1455    0.0000    0.0000 C   0  0  0  0  0  0  0  0  0  0  0  0
    2.5324    0.0000    0.0000 C   0  0  0  0  0  0  0  0  0  0  0  0
    3.1455    0.0000    0.0000 C   0  0  0  0  0  0  0  0  0  0  0  0
    2.0475    0.0000    0.0000 S   0  0  0  0  0  0  0  0  0  0  0  0
    1.2628    0.0000    0.0000 C   0  0  0  0  0  0  0  0  0  0  0  0
    0.4379    0.0000    0.0000 C   0  0  0  0  0  0  0  0  0  0  0  0
   -0.1454    0.0000    0.0000 N   0  0  0  0  0  0  0  0  0  0  0  0
   -0.9423    0.0000    0.0000 C   0  0  0  0  0  0  0  0  0  0  0  0
   -1.1559    0.0000    0.0000 O   0  0  0  0  0  0  0  0  0  0  0  0
   -1.5257    0.0000    0.0000 C   0  0  0  0  0  0  0  0  0  0  0  0
   -2.3226    0.0000    0.0000 C   0  0  0  0  0  0  0  0  0  0  0  0
   -2.9059    0.0000    0.0000 C   0  0  0  0  0  0  0  0  0  0  0  0
   -3.7028    0.0000    0.0000 C   0  0  0  0  0  0  0  0  0  0  0  0
   -3.9163    0.0000    0.0000 C   0  0  0  0  0  0  0  0  0  0  0  0
   -3.3330    0.0000    0.0000 C   0  0  0  0  0  0  0  0  0  0  0  0
   -2.5361    0.0000    0.0000 C   0  0  0  0  0  0  0  0  0  0  0  0
    0.4379    0.0000    0.0000 C   0  0  0  0  0  0  0  0  0  0  0  0
   -0.1454    0.0000    0.0000 O   0  0  0  0  0  0  0  0  0  0  0  0
    1.2628    0.0000    0.0000 N   0  0  0  0  0  0  0  0  0  0  0  0
    2.0475    0.0000    0.0000 C   0  0  0  0  0  0  0  0  0  0  0  0
    2.3024    0.0000    0.0000 C   0  0  0  0  0  0  0  0  0  0  0  0
    3.1094    0.0000    0.0000 O   0  5  0  0  0  0  0  0  0  0  0  0
    1.7504    0.0000    0.0000 O   0  0  0  0  0  0  0  0  0  0  0  0
  2  3  1  0      
  3  4  1  0      
  3  5  1  0      
  5  6  1  0      
  6  7  1  0      
  7  8  1  0      
  8  9  1  0      
  9 10  2  0      
  9 11  1  0      
 11 12  1  0      
 12 13  2  0      
 13 14  1  0      
 14 15  2  0      
 15 16  1  0      
 16 17  2  0      
 12 17  1  0      
  7 18  1  0      
 18 19  2  0      
 18 20  1  0      
  6 20  1  0      
 20 21  1  0      
  3 21  1  0      
 21 22  1  0      
 22 23  1  0      
 22 24  2  0      
M  CHG  2   1   1  23  -1
M  END
>  <Bioactivity>
Benzylpenicillin sodium is a penicillin derivative commonly used in the form of its sodium or potassium salts in the treatment of a variety of infections. It is effective against most gram-positive ba
cteria and against gram-negative cocci. It has also been used as an experimental convulsant because of its actions on GAMMA-AMINOBUTYRIC ACID mediated synaptic transmission.

>  <CAS>
69-57-8

>  <Col>
5

>  <Formula>
C16H17N2NaO4S

>  <ID>
T0958

>  <Index>
754

>  <MOLENAME>
Penicillin G sodium salt

>  <MolWt>
356.37

>  <Pathways>
Microbiology & Virology; Neuroscience

>  <Plate>
PLATE 010

>  <QR code>
1151478071

>  <Receptor>
PBPs; GABA receptor

>  <Reference>
1. Jiang X, et al. Spectrochim Acta A Mol Biomol Spectrosc. 2015 Apr 5;140:474-8. 

>  <Row>
D

>  <SMILES>
[Na+].CC1(C)SC2C(NC(=O)CC3=CC=CC=C3)C(=O)N2C1C([O-])=O

>  <Target>
Antibacterial; GABAR

>  <Weight>
10.4mg

$$$$
Lab-1.sdf
  ChemDraw05232018482D

102102  0  0  0  0  0  0  0  0999 V2000
  -10.0642    0.0000    0.0000 C   0  0  0  0  0  0  0  0  0  0  0  0
   -9.4019    0.0000    0.0000 C   0  0  0  0  0  0  0  0  0  0  0  0
   -8.6448    0.0000    0.0000 C   0  0  0  0  0  0  0  0  0  0  0  0
   -8.5502    0.0000    0.0000 C   0  0  0  0  0  0  0  0  0  0  0  0
   -7.9824    0.0000    0.0000 C   0  0  0  0  0  0  0  0  0  0  0  0
   -7.2253    0.0000    0.0000 C   0  0  0  0  0  0  0  0  0  0  0  0
   -6.5629    0.0000    0.0000 C   0  0  0  0  0  0  0  0  0  0  0  0
   -5.8058    0.0000    0.0000 C   0  0  0  0  0  0  0  0  0  0  0  0
   -5.1434    0.0000    0.0000 C   0  0  0  0  0  0  0  0  0  0  0  0
   -5.2380    0.0000    0.0000 O   0  0  0  0  0  0  0  0  0  0  0  0
   -4.3864    0.0000    0.0000 N   0  0  0  0  0  0  0  0  0  0  0  0
   -3.7240    0.0000    0.0000 C   0  0  0  0  0  0  0  0  0  0  0  0
   -3.8186    0.0000    0.0000 C   0  0  0  0  0  0  0  0  0  0  0  0
   -3.1562    0.0000    0.0000 C   0  0  0  0  0  0  0  0  0  0  0  0
   -2.3991    0.0000    0.0000 N   0  0  0  0  0  0  0  0  0  0  0  0
   -1.7367    0.0000    0.0000 C   0  0  0  0  0  0  0  0  0  0  0  0
   -1.8313    0.0000    0.0000 S   0  0  0  0  0  0  0  0  0  0  0  0
   -1.0117    0.0000    0.0000 O   0  0  0  0  0  0  0  0  0  0  0  0
   -2.6508    0.0000    0.0000 O   0  0  0  0  0  0  0  0  0  0  0  0
   -1.9259    0.0000    0.0000 O   0  0  0  0  0  0  0  0  0  0  0  0
   -2.9669    0.0000    0.0000 C   0  0  0  0  0  0  0  0  0  0  0  0
   -2.8723    0.0000    0.0000 O   0  0  0  0  0  0  0  0  0  0  0  0
   -2.3045    0.0000    0.0000 N   0  0  0  0  0  0  0  0  0  0  0  0
   -1.5474    0.0000    0.0000 C   0  0  0  0  0  0  0  0  0  0  0  0
   -1.4527    0.0000    0.0000 C   0  0  0  0  0  0  0  0  0  0  0  0
   -2.1152    0.0000    0.0000 C   0  0  0  0  0  0  0  0  0  0  0  0
   -1.0330    0.0000    0.0000 O   0  0  0  0  0  0  0  0  0  0  0  0
   -0.8849    0.0000    0.0000 C   0  0  0  0  0  0  0  0  0  0  0  0
   -0.9796    0.0000    0.0000 O   0  0  0  0  0  0  0  0  0  0  0  0
   -0.1279    0.0000    0.0000 N   0  0  0  0  0  0  0  0  0  0  0  0
   -0.0333    0.0000    0.0000 C   0  0  0  0  0  0  0  0  0  0  0  0
   -0.6957    0.0000    0.0000 C   0  0  0  0  0  0  0  0  0  0  0  0
   -0.6010    0.0000    0.0000 C   0  0  0  0  0  0  0  0  0  0  0  0
   -1.2635    0.0000    0.0000 N   0  0  0  0  0  0  0  0  0  0  0  0
   -1.1688    0.0000    0.0000 C   0  0  0  0  0  0  0  0  0  0  0  0
   -1.8313    0.0000    0.0000 S   0  0  0  0  0  0  0  0  0  0  0  0
   -2.3230    0.0000    0.0000 O   0  0  0  0  0  0  0  0  0  0  0  0
   -1.3396    0.0000    0.0000 O   0  0  0  0  0  0  0  0  0  0  0  0
   -2.4937    0.0000    0.0000 O   0  0  0  0  0  0  0  0  0  0  0  0
    0.7237    0.0000    0.0000 C   0  0  0  0  0  0  0  0  0  0  0  0
    0.8184    0.0000    0.0000 O   0  0  0  0  0  0  0  0  0  0  0  0
    1.3862    0.0000    0.0000 N   0  0  0  0  0  0  0  0  0  0  0  0
    2.1432    0.0000    0.0000 C   0  0  0  0  0  0  0  0  0  0  0  0
    2.1959    0.0000    0.0000 C   0  0  0  0  0  0  0  0  0  0  0  0
    2.9951    0.0000    0.0000 C   0  0  0  0  0  0  0  0  0  0  0  0
    3.4365    0.0000    0.0000 N   0  0  0  0  0  0  0  0  0  0  0  0
    4.2944    0.0000    0.0000 C   0  0  0  0  0  0  0  0  0  0  0  0
    4.8967    0.0000    0.0000 O   0  0  0  0  0  0  0  0  0  0  0  0
    4.4988    0.0000    0.0000 C   0  0  0  0  0  0  0  0  0  0  0  0
    5.2930    0.0000    0.0000 N   0  0  0  0  0  0  0  0  0  0  0  0
    5.4974    0.0000    0.0000 C   0  0  0  0  0  0  0  0  0  0  0  0
    4.9074    0.0000    0.0000 O   0  0  0  0  0  0  0  0  0  0  0  0
    6.2918    0.0000    0.0000 C   0  0  0  0  0  0  0  0  0  0  0  0
    6.4962    0.0000    0.0000 N   0  0  0  0  0  0  0  0  0  0  0  0
    7.2905    0.0000    0.0000 C   0  0  0  0  0  0  0  0  0  0  0  0
    7.8806    0.0000    0.0000 O   0  0  0  0  0  0  0  0  0  0  0  0
    7.4949    0.0000    0.0000 C   0  0  0  0  0  0  0  0  0  0  0  0
    6.9049    0.0000    0.0000 N   0  0  0  0  0  0  0  0  0  0  0  0
    6.1105    0.0000    0.0000 C   0  0  0  0  0  0  0  0  0  0  0  0
    5.9061    0.0000    0.0000 O   0  0  0  0  0  0  0  0  0  0  0  0
    5.5205    0.0000    0.0000 C   0  0  0  0  0  0  0  0  0  0  0  0
    4.7262    0.0000    0.0000 N   0  0  0  0  0  0  0  0  0  0  0  0
    4.5218    0.0000    0.0000 C   0  0  0  0  0  0  0  0  0  0  0  0
    5.1117    0.0000    0.0000 O   0  0  0  0  0  0  0  0  0  0  0  0
    3.7274    0.0000    0.0000 C   0  0  0  0  0  0  0  0  0  0  0  0
    3.5231    0.0000    0.0000 N   0  0  0  0  0  0  0  0  0  0  0  0
    2.7287    0.0000    0.0000 C   0  0  0  0  0  0  0  0  0  0  0  0
    2.1387    0.0000    0.0000 O   0  0  0  0  0  0  0  0  0  0  0  0
    2.5243    0.0000    0.0000 C   0  0  0  0  0  0  0  0  0  0  0  0
    1.7299    0.0000    0.0000 N   0  0  0  0  0  0  0  0  0  0  0  0
    1.5256    0.0000    0.0000 C   0  0  0  0  0  0  0  0  0  0  0  0
    1.0834    0.0000    0.0000 O   0  0  0  0  0  0  0  0  0  0  0  0
    1.9343    0.0000    0.0000 C   0  0  0  0  0  0  0  0  0  0  0  0
    1.1399    0.0000    0.0000 C   0  0  0  0  0  0  0  0  0  0  0  0
    0.5499    0.0000    0.0000 N   0  0  0  0  0  0  0  0  0  0  0  0
    0.7543    0.0000    0.0000 C   0  0  0  0  0  0  0  0  0  0  0  0
    0.1642    0.0000    0.0000 S   0  0  0  0  0  0  0  0  0  0  0  0
   -0.4123    0.0000    0.0000 O   0  0  0  0  0  0  0  0  0  0  0  0
    0.7409    0.0000    0.0000 O   0  0  0  0  0  0  0  0  0  0  0  0
   -0.4257    0.0000    0.0000 O   0  0  0  0  0  0  0  0  0  0  0  0
    3.1374    0.0000    0.0000 C   0  0  0  0  0  0  0  0  0  0  0  0
    3.3418    0.0000    0.0000 C   0  0  0  0  0  0  0  0  0  0  0  0
    4.1362    0.0000    0.0000 C   0  0  0  0  0  0  0  0  0  0  0  0
    2.7518    0.0000    0.0000 C   0  0  0  0  0  0  0  0  0  0  0  0
    5.7248    0.0000    0.0000 C   0  0  0  0  0  0  0  0  0  0  0  0
    5.1348    0.0000    0.0000 C   0  0  0  0  0  0  0  0  0  0  0  0
    5.3392    0.0000    0.0000 C   0  0  0  0  0  0  0  0  0  0  0  0
    4.3405    0.0000    0.0000 C   0  0  0  0  0  0  0  0  0  0  0  0
    8.2893    0.0000    0.0000 C   0  0  0  0  0  0  0  0  0  0  0  0
    8.4936    0.0000    0.0000 C   0  0  0  0  0  0  0  0  0  0  0  0
    9.2880    0.0000    0.0000 N   0  0  0  0  0  0  0  0  0  0  0  0
    6.8818    0.0000    0.0000 C   0  0  0  0  0  0  0  0  0  0  0  0
    7.6762    0.0000    0.0000 C   0  0  0  0  0  0  0  0  0  0  0  0
    8.2662    0.0000    0.0000 N   0  0  0  0  0  0  0  0  0  0  0  0
    9.0606    0.0000    0.0000 C   0  0  0  0  0  0  0  0  0  0  0  0
    9.2650    0.0000    0.0000 S   0  0  0  0  0  0  0  0  0  0  0  0
    8.4657    0.0000    0.0000 O   0  0  0  0  0  0  0  0  0  0  0  0
   10.0642    0.0000    0.0000 O   0  0  0  0  0  0  0  0  0  0  0  0
    9.4693    0.0000    0.0000 O   0  0  0  0  0  0  0  0  0  0  0  0
    5.0887    0.0000    0.0000 C   0  0  0  0  0  0  0  0  0  0  0  0
    5.3932    0.0000    0.0000 C   0  0  0  0  0  0  0  0  0  0  0  0
    5.8831    0.0000    0.0000 O   0  0  0  0  0  0  0  0  0  0  0  0
  1  2  1  0      
  2  3  1  0      
  3  4  1  0      
  3  5  1  0      
  5  6  1  0      
  6  7  1  0      
  7  8  1  0      
  8  9  1  0      
  9 10  2  0      
  9 11  1  0      
 11 12  1  0      
 12 13  1  0      
 13 14  1  0      
 14 15  1  0      
 15 16  1  0      
 16 17  1  0      
 17 18  2  0      
 17 19  2  0      
 17 20  1  0      
 12 21  1  0      
 21 22  2  0      
 21 23  1  0      
 23 24  1  0      
 24 25  1  0      
 25 26  1  0      
 25 27  1  0      
 24 28  1  0      
 28 29  2  0      
 28 30  1  0      
 30 31  1  0      
 31 32  1  0      
 32 33  1  0      
 33 34  1  0      
 34 35  1  0      
 35 36  1  0      
 36 37  2  0      
 36 38  2  0      
 36 39  1  0      
 31 40  1  0      
 40 41  2  0      
 40 42  1  0      
 42 43  1  0      
 43 44  1  0      
 44 45  1  0      
 45 46  1  0      
 46 47  1  0      
 47 48  2  0      
 47 49  1  0      
 49 50  1  0      
 50 51  1  0      
 51 52  2  0      
 51 53  1  0      
 53 54  1  0      
 54 55  1  0      
 55 56  2  0      
 55 57  1  0      
 57 58  1  0      
 58 59  1  0      
 59 60  2  0      
 59 61  1  0      
 61 62  1  0      
 62 63  1  0      
 63 64  2  0      
 63 65  1  0      
 65 66  1  0      
 66 67  1  0      
 67 68  2  0      
 67 69  1  0      
 69 70  1  0      
 70 71  1  0      
 43 71  1  0      
 71 72  2  0      
 69 73  1  0      
 73 74  1  0      
 74 75  1  0      
 75 76  1  0      
 76 77  1  0      
 77 78  2  0      
 77 79  2  0      
 77 80  1  0      
 65 81  1  0      
 81 82  1  0      
 82 83  1  0      
 82 84  1  0      
 61 85  1  0      
 85 86  1  0      
 86 87  1  0      
 86 88  1  0      
 57 89  1  0      
 89 90  1  0      
 90 91  1  0      
 53 92  1  0      
 92 93  1  0      
 93 94  1  0      
 94 95  1  0      
 95 96  1  0      
 96 97  2  0      
 96 98  2  0      
 96 99  1  0      
 49100  1  0      
100101  1  0      
100102  1  0      
M  END
>  <Bioactivity>
Colistimethate Sodium is indicated in adults and children including neonates for the treatment of serious infections due to selected aerobic Gram-negative pathogens in patients with limited treatment 
options

>  <CAS>
30387-39-4

>  <Col>
6

>  <Formula>
C57H108N16O25S4

>  <ID>
T3501

>  <Index>
755

>  <MOLENAME>
Colistimethate Sodium

>  <MolWt>
1545.82

>  <Pathways>
Immunology/Inflammation

>  <Plate>
PLATE 010

>  <QR code>
1151478072

>  <Receptor>
Others

>  <Reference>
1. Wilkinson RE, et al. Outcome analysis of colistin-treated burn center patients. Burns. 2017 Apr 11. 

>  <Row>
D

>  <SMILES>
CCC(C)CCCCC(=O)NC(CCNCS(=O)(=O)O)C(=O)NC(C(C)O)C(=O)NC(CCNCS(=O)(=O)O)C(=O)NC1CCNC(=O)C(NC(=O)C(NC(=O)C(NC(=O)C(NC(=O)C(NC(=O)C(NC1=O)CCNCS(=O)(=O)O)CC(C)C)CC(C)C)CCN)CCNCS(=O)(=O)O)C(C)O

>  <Target>
Others

>  <Weight>
10.5mg

$$$$
Lab-1.sdf
  ChemDraw05232018482D

 60 68  0  0  0  0  0  0  0  0999 V2000
    7.2304    0.0000    0.0000 C   0  0  0  0  0  0  0  0  0  0  0  0
    6.4164    0.0000    0.0000 C   0  0  0  0  0  0  0  0  0  0  0  0
    5.8935    0.0000    0.0000 C   0  0  0  0  0  0  0  0  0  0  0  0
    5.0794    0.0000    0.0000 C   0  0  0  0  0  0  0  0  0  0  0  0
    4.7882    0.0000    0.0000 C   0  0  0  0  0  0  0  0  0  0  0  0
    4.2015    0.0000    0.0000 C   0  0  0  0  0  0  0  0  0  0  0  0
    3.4686    0.0000    0.0000 C   0  0  0  0  0  0  0  0  0  0  0  0
    3.6023    0.0000    0.0000 C   0  0  0  0  0  0  0  0  0  0  0  0
    4.4179    0.0000    0.0000 O   0  0  0  0  0  0  0  0  0  0  0  0
    2.8694    0.0000    0.0000 C   0  0  0  0  0  0  0  0  0  0  0  0
    2.2827    0.0000    0.0000 C   0  0  0  0  0  0  0  0  0  0  0  0
    2.6530    0.0000    0.0000 C   0  0  0  0  0  0  0  0  0  0  0  0
    2.1997    0.0000    0.0000 C   0  0  0  0  0  0  0  0  0  0  0  0
    1.3761    0.0000    0.0000 C   0  0  0  0  0  0  0  0  0  0  0  0
    1.0058    0.0000    0.0000 C   0  0  0  0  0  0  0  0  0  0  0  0
    1.4591    0.0000    0.0000 C   0  0  0  0  0  0  0  0  0  0  0  0
    1.0888    0.0000    0.0000 C   0  0  0  0  0  0  0  0  0  0  0  0
    0.2652    0.0000    0.0000 C   0  0  0  0  0  0  0  0  0  0  0  0
   -0.1882    0.0000    0.0000 C   0  0  0  0  0  0  0  0  0  0  0  0
    0.1822    0.0000    0.0000 C   0  0  0  0  0  0  0  0  0  0  0  0
   -0.2712    0.0000    0.0000 C   0  0  0  0  0  0  0  0  0  0  0  0
   -1.0949    0.0000    0.0000 C   0  0  0  0  0  0  0  0  0  0  0  0
   -1.4651    0.0000    0.0000 C   0  0  0  0  0  0  0  0  0  0  0  0
   -1.0118    0.0000    0.0000 C   0  0  0  0  0  0  0  0  0  0  0  0
   -2.2887    0.0000    0.0000 O   0  0  0  0  0  0  0  0  0  0  0  0
   -2.6590    0.0000    0.0000 C   0  0  0  0  0  0  0  0  0  0  0  0
   -3.4826    0.0000    0.0000 C   0  0  0  0  0  0  0  0  0  0  0  0
   -3.8529    0.0000    0.0000 C   0  0  0  0  0  0  0  0  0  0  0  0
   -3.3996    0.0000    0.0000 C   0  0  0  0  0  0  0  0  0  0  0  0
   -2.5760    0.0000    0.0000 C   0  0  0  0  0  0  0  0  0  0  0  0
   -2.2057    0.0000    0.0000 O   0  0  0  0  0  0  0  0  0  0  0  0
   -2.1227    0.0000    0.0000 C   0  0  0  0  0  0  0  0  0  0  0  0
   -1.2991    0.0000    0.0000 O   0  0  0  0  0  0  0  0  0  0  0  0
   -3.7699    0.0000    0.0000 O   0  0  0  0  0  0  0  0  0  0  0  0
   -3.3166    0.0000    0.0000 C   0  0  0  0  0  0  0  0  0  0  0  0
   -3.6078    0.0000    0.0000 C   0  0  0  0  0  0  0  0  0  0  0  0
   -2.9636    0.0000    0.0000 C   0  0  0  0  0  0  0  0  0  0  0  0
   -2.2743    0.0000    0.0000 C   0  0  0  0  0  0  0  0  0  0  0  0
   -2.4925    0.0000    0.0000 O   0  0  0  0  0  0  0  0  0  0  0  0
   -1.5024    0.0000    0.0000 C   0  0  0  0  0  0  0  0  0  0  0  0
   -0.8643    0.0000    0.0000 O   0  0  0  0  0  0  0  0  0  0  0  0
   -3.0020    0.0000    0.0000 O   0  0  0  0  0  0  0  0  0  0  0  0
   -4.4034    0.0000    0.0000 O   0  0  0  0  0  0  0  0  0  0  0  0
   -4.6765    0.0000    0.0000 O   0  0  0  0  0  0  0  0  0  0  0  0
   -3.9360    0.0000    0.0000 O   0  0  0  0  0  0  0  0  0  0  0  0
   -4.7596    0.0000    0.0000 C   0  0  0  0  0  0  0  0  0  0  0  0
   -5.2129    0.0000    0.0000 C   0  0  0  0  0  0  0  0  0  0  0  0
   -6.0365    0.0000    0.0000 C   0  0  0  0  0  0  0  0  0  0  0  0
   -6.4068    0.0000    0.0000 C   0  0  0  0  0  0  0  0  0  0  0  0
   -5.9534    0.0000    0.0000 C   0  0  0  0  0  0  0  0  0  0  0  0
   -5.1298    0.0000    0.0000 O   0  0  0  0  0  0  0  0  0  0  0  0
   -6.3237    0.0000    0.0000 C   0  0  0  0  0  0  0  0  0  0  0  0
   -7.2304    0.0000    0.0000 O   0  0  0  0  0  0  0  0  0  0  0  0
   -6.4898    0.0000    0.0000 O   0  0  0  0  0  0  0  0  0  0  0  0
   -4.8426    0.0000    0.0000 O   0  0  0  0  0  0  0  0  0  0  0  0
    0.5525    0.0000    0.0000 C   0  0  0  0  0  0  0  0  0  0  0  0
    3.0983    0.0000    0.0000 C   0  0  0  0  0  0  0  0  0  0  0  0
    4.3258    0.0000    0.0000 C   0  0  0  0  0  0  0  0  0  0  0  0
    5.3111    0.0000    0.0000 O   0  0  0  0  0  0  0  0  0  0  0  0
    6.1252    0.0000    0.0000 C   0  0  0  0  0  0  0  0  0  0  0  0
  1  2  1  0      
  2  3  1  0      
  3  4  1  0      
  4  5  1  0      
  5  6  1  0      
  6  7  1  0      
  7  8  1  0      
  8  9  1  0      
  5  9  1  0      
  8 10  1  0      
 10 11  1  0      
 11 12  1  0      
  7 12  1  0      
 12 13  1  0      
 13 14  1  0      
 14 15  1  0      
 15 16  1  0      
 11 16  1  0      
 16 17  1  0      
 17 18  1  0      
 18 19  2  0      
 19 20  1  0      
 15 20  1  0      
 20 21  1  0      
 21 22  1  0      
 22 23  1  0      
 23 24  1  0      
 19 24  1  0      
 23 25  1  0      
 25 26  1  0      
 26 27  1  0      
 27 28  1  0      
 28 29  1  0      
 29 30  1  0      
 30 31  1  0      
 26 31  1  0      
 30 32  1  0      
 32 33  1  0      
 29 34  1  0      
 34 35  1  0      
 35 36  1  0      
 36 37  1  0      
 37 38  1  0      
 38 39  1  0      
 35 39  1  0      
 38 40  1  0      
 40 41  1  0      
 37 42  1  0      
 36 43  1  0      
 28 44  1  0      
 27 45  1  0      
 45 46  1  0      
 46 47  1  0      
 47 48  1  0      
 48 49  1  0      
 49 50  1  0      
 50 51  1  0      
 46 51  1  0      
 50 52  1  0      
 49 53  1  0      
 48 54  1  0      
 47 55  1  0      
 20 56  1  0      
 12 57  1  0      
  6 58  1  0      
  5 59  1  0      
 59 60  1  0      
  2 60  1  0      
M  END
>  <Bioactivity>
Polyphyllin D has anti-angiogenic effect . Polyphyllin D has toxicity in human RBCs as well as its underlying mechanism for the hemolysis and eryptosis/erythroptosis.Polyphyllin D has strong antican
cer activity, can overcome drug resistance in R-HepG2 cells and elicit programmed cell death via mitochondrial dysfunction.Polyphyllin D induces apoptosis via the mitochondrial apoptotic pathway as e
videnced by decreased Bcl-2 expression levels, disruption of MMP and increased Bax, cytochrome C and cleaved-caspase-3 levels.

>  <CAS>
50773-41-6

>  <Col>
7

>  <Formula>
C44H70O16

>  <ID>
T3895

>  <Index>
756

>  <MOLENAME>
POLYPHYLLIN D

>  <MolWt>
855.028

>  <Pathways>
Others

>  <Plate>
PLATE 010

>  <QR code>
1151478073

>  <Receptor>
Others

>  <Reference>
1. Wu L,et al. Polyphyllin D induces apoptosis in K562/A02 cells through G2/M phase arrest.Wu L1, Li Q, Liu Y.J Pharm Pharmacol. 2014 May;66(5):713-21.

>  <Row>
D

>  <SMILES>
CC1CCC2(C(C3C(O2)CC4C3(CCC5C4CC=C6C5(CCC(C6)OC7C(C(C(C(O7)CO)OC8C(C(C(O8)CO)O)O)O)OC9C(C(C(C(O9)C)O)O)O)C)C)C)OC1

>  <Target>
Others

>  <Weight>
10.2mg

$$$$
Lab-1.sdf
  ChemDraw05232018482D

 29 32  0  0  0  0  0  0  0  0999 V2000
    0.9772    0.0000    0.0000 C   0  0  0  0  0  0  0  0  0  0  0  0
    0.9772    0.0000    0.0000 C   0  0  0  0  0  0  0  0  0  0  0  0
    0.9772    0.0000    0.0000 C   0  0  0  0  0  0  0  0  0  0  0  0
    0.1522    0.0000    0.0000 C   0  0  0  0  0  0  0  0  0  0  0  0
   -0.3327    0.0000    0.0000 C   0  0  0  0  0  0  0  0  0  0  0  0
   -1.1173    0.0000    0.0000 C   0  0  0  0  0  0  0  0  0  0  0  0
   -1.1173    0.0000    0.0000 C   0  0  0  0  0  0  0  0  0  0  0  0
   -0.3327    0.0000    0.0000 O   0  0  0  0  0  0  0  0  0  0  0  0
   -1.8318    0.0000    0.0000 C   0  0  0  0  0  0  0  0  0  0  0  0
   -2.5463    0.0000    0.0000 C   0  0  0  0  0  0  0  0  0  0  0  0
   -2.5463    0.0000    0.0000 C   0  0  0  0  0  0  0  0  0  0  0  0
   -1.8318    0.0000    0.0000 C   0  0  0  0  0  0  0  0  0  0  0  0
   -3.2607    0.0000    0.0000 C   0  0  0  0  0  0  0  0  0  0  0  0
   -3.9752    0.0000    0.0000 C   0  0  0  0  0  0  0  0  0  0  0  0
   -3.9752    0.0000    0.0000 C   0  0  0  0  0  0  0  0  0  0  0  0
   -4.6897    0.0000    0.0000 O   0  0  0  0  0  0  0  0  0  0  0  0
   -3.2607    0.0000    0.0000 O   0  0  0  0  0  0  0  0  0  0  0  0
    1.8022    0.0000    0.0000 O   0  0  0  0  0  0  0  0  0  0  0  0
    2.2147    0.0000    0.0000 C   0  0  0  0  0  0  0  0  0  0  0  0
    1.8022    0.0000    0.0000 C   0  0  0  0  0  0  0  0  0  0  0  0
    2.2147    0.0000    0.0000 C   0  0  0  0  0  0  0  0  0  0  0  0
    3.0397    0.0000    0.0000 C   0  0  0  0  0  0  0  0  0  0  0  0
    3.4522    0.0000    0.0000 C   0  0  0  0  0  0  0  0  0  0  0  0
    3.0397    0.0000    0.0000 O   0  0  0  0  0  0  0  0  0  0  0  0
    4.2772    0.0000    0.0000 C   0  0  0  0  0  0  0  0  0  0  0  0
    4.6897    0.0000    0.0000 O   0  0  0  0  0  0  0  0  0  0  0  0
    3.4522    0.0000    0.0000 O   0  0  0  0  0  0  0  0  0  0  0  0
    1.8022    0.0000    0.0000 O   0  0  0  0  0  0  0  0  0  0  0  0
    0.9772    0.0000    0.0000 O   0  0  0  0  0  0  0  0  0  0  0  0
  1  2  1  0      
  2  3  1  0      
  2  4  1  0      
  4  5  1  0      
  5  6  1  0      
  6  7  2  0      
  7  8  1  0      
  4  8  1  0      
  7  9  1  0      
  9 10  2  0      
 10 11  1  0      
 11 12  2  0      
  6 12  1  0      
 11 13  1  0      
 13 14  2  0      
 14 15  1  0      
 15 16  2  0      
 15 17  1  0      
 10 17  1  0      
  2 18  1  0      
 18 19  1  0      
 19 20  1  0      
 20 21  1  0      
 21 22  1  0      
 22 23  1  0      
 23 24  1  0      
 19 24  1  0      
 23 25  1  0      
 25 26  1  0      
 22 27  1  0      
 21 28  1  0      
 20 29  1  0      
M  END
>  <Bioactivity>
Nodakenin has memory-enhancing effect.Nodakenin has anti-aggregatory, and antibacterial activities.Nodakenin has anti-allergic and anti- inflammatory activities, commonly used for the treatment of a
sthma and chronic bronchitis

>  <CAS>
495-31-8

>  <Col>
8

>  <Formula>
C20H24O9

>  <ID>
T3872

>  <Index>
757

>  <MOLENAME>
Nodakenin

>  <MolWt>
408.403

>  <Pathways>
Neuronal Signaling

>  <Plate>
PLATE 010

>  <QR code>
1151478074

>  <Receptor>
AchE

>  <Reference>
1. Park SJ,et al. Effect of nodakenin on atopic dermatitis-like skin lesions. Biosci Biotechnol Biochem. 2014;78(9):1568-71.

>  <Row>
D

>  <SMILES>
CC(C)(C1CC2=C(O1)C=C3C(=C2)C=CC(=O)O3)OC4C(C(C(C(O4)CO)O)O)O

>  <Target>
AChR inhibitor?

>  <Weight>
10.1mg

$$$$
Lab-1.sdf
  ChemDraw05232018482D

 24 26  0  0  0  0  0  0  0  0999 V2000
   -0.4370    0.0000    0.0000 C   0  0  0  0  0  0  0  0  0  0  0  0
   -0.4370    0.0000    0.0000 C   0  0  0  0  0  0  0  0  0  0  0  0
   -1.1513    0.0000    0.0000 C   0  0  0  0  0  0  0  0  0  0  0  0
   -1.8658    0.0000    0.0000 C   0  0  0  0  0  0  0  0  0  0  0  0
   -2.5804    0.0000    0.0000 C   0  0  0  0  0  0  0  0  0  0  0  0
   -3.2947    0.0000    0.0000 C   0  0  0  0  0  0  0  0  0  0  0  0
   -3.2947    0.0000    0.0000 C   0  0  0  0  0  0  0  0  0  0  0  0
   -2.5804    0.0000    0.0000 C   0  0  0  0  0  0  0  0  0  0  0  0
   -1.8658    0.0000    0.0000 C   0  0  0  0  0  0  0  0  0  0  0  0
   -4.0794    0.0000    0.0000 O   0  0  0  0  0  0  0  0  0  0  0  0
   -4.5643    0.0000    0.0000 C   0  0  0  0  0  0  0  0  0  0  0  0
   -4.0794    0.0000    0.0000 O   0  0  0  0  0  0  0  0  0  0  0  0
    0.2775    0.0000    0.0000 C   0  0  0  0  0  0  0  0  0  0  0  0
    0.2775    0.0000    0.0000 C   0  0  0  0  0  0  0  0  0  0  0  0
    0.9921    0.0000    0.0000 C   0  0  0  0  0  0  0  0  0  0  0  0
    1.7065    0.0000    0.0000 C   0  0  0  0  0  0  0  0  0  0  0  0
    2.4209    0.0000    0.0000 C   0  0  0  0  0  0  0  0  0  0  0  0
    3.1354    0.0000    0.0000 C   0  0  0  0  0  0  0  0  0  0  0  0
    3.1354    0.0000    0.0000 C   0  0  0  0  0  0  0  0  0  0  0  0
    2.4209    0.0000    0.0000 C   0  0  0  0  0  0  0  0  0  0  0  0
    1.7065    0.0000    0.0000 C   0  0  0  0  0  0  0  0  0  0  0  0
    3.8499    0.0000    0.0000 O   0  0  0  0  0  0  0  0  0  0  0  0
    3.8499    0.0000    0.0000 O   0  0  0  0  0  0  0  0  0  0  0  0
    4.5643    0.0000    0.0000 C   0  0  0  0  0  0  0  0  0  0  0  0
  1  2  1  0      
  2  3  1  0      
  3  4  1  0      
  4  5  2  0      
  5  6  1  0      
  6  7  2  0      
  7  8  1  0      
  8  9  2  0      
  4  9  1  0      
  7 10  1  0      
 10 11  1  0      
 11 12  1  0      
  6 12  1  0      
  2 13  1  0      
 13 14  1  0      
 13 15  1  0      
 15 16  1  0      
 16 17  2  0      
 17 18  1  0      
 18 19  2  0      
 19 20  1  0      
 20 21  2  0      
 16 21  1  0      
 19 22  1  0      
 18 23  1  0      
 23 24  1  0      
M  END
>  <Bioactivity>
Anwuligan(Macelignan) is a natural compound isolated from Myristica fragrans Houtt.Anwuligan possesses therapeutic potentials against neurodegenerative diseases with oxidative stress and neuroinflamm
ation

>  <CAS>
107534-93-0

>  <Col>
9

>  <Formula>
C20H24O4

>  <ID>
T3866

>  <Index>
758

>  <MOLENAME>
Anwuligan

>  <MolWt>
328.408

>  <Pathways>
Neuronal Signaling

>  <Plate>
PLATE 010

>  <QR code>
1151478075

>  <Receptor>
Others

>  <Reference>
1. Yang X,et al. [Selection of mobile phases for the determination of gamma-schisandrin and multi-active constituents in Schisandra chinensis and its preparations by high performance liquid chromatogr
aphy].

>  <Row>
D

>  <SMILES>
CC(CC1=CC2=C(C=C1)OCO2)C(C)CC3=CC(=C(C=C3)O)OC

>  <Target>
Others

>  <Weight>
10.3mg

$$$$
Lab-1.sdf
  ChemDraw05232018482D

 53 59  0  0  0  0  0  0  0  0999 V2000
   -5.4274    0.0000    0.0000 C   0  0  0  0  0  0  0  0  0  0  0  0
   -5.0041    0.0000    0.0000 C   0  0  0  0  0  0  0  0  0  0  0  0
   -5.4057    0.0000    0.0000 C   0  0  0  0  0  0  0  0  0  0  0  0
   -4.9824    0.0000    0.0000 C   0  0  0  0  0  0  0  0  0  0  0  0
   -4.1575    0.0000    0.0000 C   0  0  0  0  0  0  0  0  0  0  0  0
   -3.7559    0.0000    0.0000 C   0  0  0  0  0  0  0  0  0  0  0  0
   -4.1792    0.0000    0.0000 O   0  0  0  0  0  0  0  0  0  0  0  0
   -2.9310    0.0000    0.0000 O   0  0  0  0  0  0  0  0  0  0  0  0
   -2.5294    0.0000    0.0000 C   0  0  0  0  0  0  0  0  0  0  0  0
   -2.9527    0.0000    0.0000 C   0  0  0  0  0  0  0  0  0  0  0  0
   -2.5511    0.0000    0.0000 C   0  0  0  0  0  0  0  0  0  0  0  0
   -1.7262    0.0000    0.0000 C   0  0  0  0  0  0  0  0  0  0  0  0
   -1.3029    0.0000    0.0000 O   0  0  0  0  0  0  0  0  0  0  0  0
   -1.7045    0.0000    0.0000 C   0  0  0  0  0  0  0  0  0  0  0  0
   -1.2812    0.0000    0.0000 O   0  0  0  0  0  0  0  0  0  0  0  0
   -0.4562    0.0000    0.0000 C   0  0  0  0  0  0  0  0  0  0  0  0
   -0.0547    0.0000    0.0000 C   0  0  0  0  0  0  0  0  0  0  0  0
    0.7702    0.0000    0.0000 C   0  0  0  0  0  0  0  0  0  0  0  0
    1.1936    0.0000    0.0000 C   0  0  0  0  0  0  0  0  0  0  0  0
    2.0185    0.0000    0.0000 C   0  0  0  0  0  0  0  0  0  0  0  0
    2.4201    0.0000    0.0000 C   0  0  0  0  0  0  0  0  0  0  0  0
    3.2450    0.0000    0.0000 C   0  0  0  0  0  0  0  0  0  0  0  0
    3.6683    0.0000    0.0000 C   0  0  0  0  0  0  0  0  0  0  0  0
    4.4932    0.0000    0.0000 C   0  0  0  0  0  0  0  0  0  0  0  0
    5.0358    0.0000    0.0000 C   0  0  0  0  0  0  0  0  0  0  0  0
    5.7945    0.0000    0.0000 C   0  0  0  0  0  0  0  0  0  0  0  0
    5.7208    0.0000    0.0000 C   0  0  0  0  0  0  0  0  0  0  0  0
    4.9165    0.0000    0.0000 C   0  0  0  0  0  0  0  0  0  0  0  0
    4.5149    0.0000    0.0000 C   0  0  0  0  0  0  0  0  0  0  0  0
    3.6900    0.0000    0.0000 C   0  0  0  0  0  0  0  0  0  0  0  0
    3.2667    0.0000    0.0000 C   0  0  0  0  0  0  0  0  0  0  0  0
    2.4418    0.0000    0.0000 C   0  0  0  0  0  0  0  0  0  0  0  0
    2.0402    0.0000    0.0000 C   0  0  0  0  0  0  0  0  0  0  0  0
    1.2153    0.0000    0.0000 C   0  0  0  0  0  0  0  0  0  0  0  0
    0.7920    0.0000    0.0000 C   0  0  0  0  0  0  0  0  0  0  0  0
   -0.0329    0.0000    0.0000 C   0  0  0  0  0  0  0  0  0  0  0  0
   -0.7258    0.0000    0.0000 C   0  0  0  0  0  0  0  0  0  0  0  0
   -0.0492    0.0000    0.0000 C   0  0  0  0  0  0  0  0  0  0  0  0
   -0.7716    0.0000    0.0000 O   0  0  0  0  0  0  0  0  0  0  0  0
    2.8651    0.0000    0.0000 C   0  0  0  0  0  0  0  0  0  0  0  0
    3.3654    0.0000    0.0000 C   0  0  0  0  0  0  0  0  0  0  0  0
    5.4115    0.0000    0.0000 C   0  0  0  0  0  0  0  0  0  0  0  0
    6.2306    0.0000    0.0000 O   0  0  0  0  0  0  0  0  0  0  0  0
    5.0875    0.0000    0.0000 O   0  0  0  0  0  0  0  0  0  0  0  0
    4.8520    0.0000    0.0000 C   0  0  0  0  0  0  0  0  0  0  0  0
    4.0636    0.0000    0.0000 C   0  0  0  0  0  0  0  0  0  0  0  0
    5.4567    0.0000    0.0000 C   0  0  0  0  0  0  0  0  0  0  0  0
    1.5951    0.0000    0.0000 C   0  0  0  0  0  0  0  0  0  0  0  0
   -2.9744    0.0000    0.0000 O   0  0  0  0  0  0  0  0  0  0  0  0
   -3.7776    0.0000    0.0000 O   0  0  0  0  0  0  0  0  0  0  0  0
   -3.7341    0.0000    0.0000 O   0  0  0  0  0  0  0  0  0  0  0  0
   -5.3839    0.0000    0.0000 O   0  0  0  0  0  0  0  0  0  0  0  0
   -6.2306    0.0000    0.0000 O   0  0  0  0  0  0  0  0  0  0  0  0
  1  2  1  0      
  2  3  1  0      
  3  4  1  0      
  4  5  1  0      
  5  6  1  0      
  6  7  1  0      
  2  7  1  0      
  6  8  1  0      
  8  9  1  0      
  9 10  1  0      
 10 11  1  0      
 11 12  1  0      
 12 13  1  0      
 13 14  1  0      
  9 14  1  0      
 14 15  1  0      
 15 16  1  0      
 16 17  1  0      
 17 18  1  0      
 18 19  1  0      
 19 20  1  0      
 20 21  1  0      
 21 22  1  0      
 22 23  1  0      
 23 24  1  0      
 24 25  1  0      
 25 26  1  0      
 26 27  1  0      
 27 28  1  0      
 24 28  1  0      
 28 29  1  0      
 29 30  1  0      
 30 31  1  0      
 23 31  1  0      
 31 32  1  0      
 20 32  1  0      
 32 33  1  0      
 33 34  1  0      
 34 35  1  0      
 19 35  1  0      
 35 36  1  0      
 16 36  1  0      
 36 37  1  0      
 36 38  1  0      
 38 39  1  0      
 32 40  1  0      
 31 41  1  0      
 28 42  1  0      
 42 43  2  0      
 42 44  1  0      
 25 45  1  0      
 45 46  2  0      
 45 47  1  0      
 19 48  1  0      
 11 49  1  0      
 10 50  1  0      
  5 51  1  0      
  4 52  1  0      
  3 53  1  0      
M  END
>  <Bioactivity>
Anemoside A3 is an attractive candidate for further development as a cognitive enhancer capable of alleviating memory dysfunctions associated with aging and neurodegenerative diseases. 

>  <CAS>
129724-84-1

>  <Col>
10

>  <Formula>
C41H66O12

>  <ID>
T3911

>  <Index>
759

>  <MOLENAME>
 Anemoside A3

>  <MolWt>
750.96

>  <Pathways>
Neuroscience

>  <Plate>
PLATE 010

>  <QR code>
1151478076

>  <Receptor>
Others

>  <Reference>
1.Ip FC, Fu WY, Cheng EY, Tong EP, et al.Anemoside A3 Enhances Cognition through the Regulation of Synaptic Function and Neuroprotection.Neuropsychopharmacology. 2015 Jul;40(8):1877-87.

>  <Row>
D

>  <SMILES>
CC1C(C(C(C(O1)OC2C(C(COC2OC3CCC4(C5CCC6C7C(CCC7(CCC6(C5(CCC4C3(C)CO)C)C)C(=O)O)C(=C)C)C)O)O)O)O)O

>  <Target>
Others

>  <Weight>
10.2mg

$$$$
Lab-1.sdf
  ChemDraw05232018482D

 55 61  0  0  0  0  0  0  0  0999 V2000
    4.8873    0.0000    0.0000 C   0  0  0  0  0  0  0  0  0  0  0  0
    4.0623    0.0000    0.0000 C   0  0  0  0  0  0  0  0  0  0  0  0
    3.6498    0.0000    0.0000 C   0  0  0  0  0  0  0  0  0  0  0  0
    2.8248    0.0000    0.0000 C   0  0  0  0  0  0  0  0  0  0  0  0
    2.4123    0.0000    0.0000 C   0  0  0  0  0  0  0  0  0  0  0  0
    2.8248    0.0000    0.0000 C   0  0  0  0  0  0  0  0  0  0  0  0
    3.6498    0.0000    0.0000 O   0  0  0  0  0  0  0  0  0  0  0  0
    2.4123    0.0000    0.0000 O   0  0  0  0  0  0  0  0  0  0  0  0
    1.5873    0.0000    0.0000 C   0  0  0  0  0  0  0  0  0  0  0  0
    1.1748    0.0000    0.0000 C   0  0  0  0  0  0  0  0  0  0  0  0
    0.3498    0.0000    0.0000 C   0  0  0  0  0  0  0  0  0  0  0  0
   -0.0627    0.0000    0.0000 C   0  0  0  0  0  0  0  0  0  0  0  0
    0.3498    0.0000    0.0000 C   0  0  0  0  0  0  0  0  0  0  0  0
    1.1748    0.0000    0.0000 C   0  0  0  0  0  0  0  0  0  0  0  0
    1.8744    0.0000    0.0000 C   0  0  0  0  0  0  0  0  0  0  0  0
    1.2036    0.0000    0.0000 C   0  0  0  0  0  0  0  0  0  0  0  0
    1.9320    0.0000    0.0000 O   0  0  0  0  0  0  0  0  0  0  0  0
   -0.0627    0.0000    0.0000 C   0  0  0  0  0  0  0  0  0  0  0  0
   -0.8877    0.0000    0.0000 C   0  0  0  0  0  0  0  0  0  0  0  0
   -1.3002    0.0000    0.0000 C   0  0  0  0  0  0  0  0  0  0  0  0
   -0.8877    0.0000    0.0000 C   0  0  0  0  0  0  0  0  0  0  0  0
   -1.3002    0.0000    0.0000 C   0  0  0  0  0  0  0  0  0  0  0  0
   -2.1251    0.0000    0.0000 C   0  0  0  0  0  0  0  0  0  0  0  0
   -2.5376    0.0000    0.0000 C   0  0  0  0  0  0  0  0  0  0  0  0
   -3.3626    0.0000    0.0000 C   0  0  0  0  0  0  0  0  0  0  0  0
   -3.7751    0.0000    0.0000 C   0  0  0  0  0  0  0  0  0  0  0  0
   -4.6001    0.0000    0.0000 C   0  0  0  0  0  0  0  0  0  0  0  0
   -5.0126    0.0000    0.0000 C   0  0  0  0  0  0  0  0  0  0  0  0
   -4.6001    0.0000    0.0000 C   0  0  0  0  0  0  0  0  0  0  0  0
   -3.7751    0.0000    0.0000 C   0  0  0  0  0  0  0  0  0  0  0  0
   -3.3626    0.0000    0.0000 C   0  0  0  0  0  0  0  0  0  0  0  0
   -2.5376    0.0000    0.0000 C   0  0  0  0  0  0  0  0  0  0  0  0
   -2.1251    0.0000    0.0000 C   0  0  0  0  0  0  0  0  0  0  0  0
   -1.7126    0.0000    0.0000 C   0  0  0  0  0  0  0  0  0  0  0  0
   -3.7751    0.0000    0.0000 O   0  0  0  0  0  0  0  0  0  0  0  0
   -4.1876    0.0000    0.0000 C   0  0  0  0  0  0  0  0  0  0  0  0
   -5.0126    0.0000    0.0000 O   0  0  0  0  0  0  0  0  0  0  0  0
   -5.2998    0.0000    0.0000 C   0  0  0  0  0  0  0  0  0  0  0  0
   -4.6289    0.0000    0.0000 C   0  0  0  0  0  0  0  0  0  0  0  0
   -1.2140    0.0000    0.0000 C   0  0  0  0  0  0  0  0  0  0  0  0
   -0.4752    0.0000    0.0000 C   0  0  0  0  0  0  0  0  0  0  0  0
    1.5873    0.0000    0.0000 O   0  0  0  0  0  0  0  0  0  0  0  0
    2.4123    0.0000    0.0000 O   0  0  0  0  0  0  0  0  0  0  0  0
    2.8248    0.0000    0.0000 C   0  0  0  0  0  0  0  0  0  0  0  0
    2.4123    0.0000    0.0000 C   0  0  0  0  0  0  0  0  0  0  0  0
    2.8248    0.0000    0.0000 C   0  0  0  0  0  0  0  0  0  0  0  0
    3.6498    0.0000    0.0000 C   0  0  0  0  0  0  0  0  0  0  0  0
    4.0623    0.0000    0.0000 C   0  0  0  0  0  0  0  0  0  0  0  0
    3.6498    0.0000    0.0000 O   0  0  0  0  0  0  0  0  0  0  0  0
    4.8873    0.0000    0.0000 C   0  0  0  0  0  0  0  0  0  0  0  0
    5.2998    0.0000    0.0000 O   0  0  0  0  0  0  0  0  0  0  0  0
    4.0623    0.0000    0.0000 O   0  0  0  0  0  0  0  0  0  0  0  0
    2.4123    0.0000    0.0000 O   0  0  0  0  0  0  0  0  0  0  0  0
    1.5873    0.0000    0.0000 O   0  0  0  0  0  0  0  0  0  0  0  0
    4.0623    0.0000    0.0000 O   0  0  0  0  0  0  0  0  0  0  0  0
  1  2  1  0      
  2  3  1  0      
  3  4  1  0      
  4  5  1  0      
  5  6  1  0      
  6  7  1  0      
  2  7  1  0      
  6  8  1  0      
  8  9  1  0      
  9 10  1  0      
 10 11  1  0      
 11 12  1  0      
 12 13  1  0      
 13 14  1  0      
  9 14  1  0      
 14 15  1  0      
 14 16  1  0      
 16 17  1  0      
 13 18  1  0      
 18 19  1  0      
 19 20  1  0      
 20 21  1  0      
 12 21  1  0      
 21 22  1  0      
 22 23  2  0      
 23 24  1  0      
 24 25  2  0      
 25 26  1  0      
 26 27  1  0      
 27 28  1  0      
 28 29  1  0      
 29 30  1  0      
 25 30  1  0      
 30 31  1  0      
 31 32  1  0      
 32 33  1  0      
 24 33  1  0      
 20 33  1  0      
 33 34  1  0      
 31 35  1  0      
 30 36  1  0      
 36 37  1  0      
 27 38  1  0      
 27 39  1  0      
 20 40  1  0      
 12 41  1  0      
  5 42  1  0      
  4 43  1  0      
 43 44  1  0      
 44 45  1  0      
 45 46  1  0      
 46 47  1  0      
 47 48  1  0      
 48 49  1  0      
 44 49  1  0      
 48 50  1  0      
 50 51  1  0      
 47 52  1  0      
 46 53  1  0      
 45 54  1  0      
  3 55  1  0      
M  END
>  <Bioactivity>
Saikosaponin B2 acts on HCV E2, inhibits infection by several genotypic strains and prevents binding of serum-derived HCV onto hepatoma cells. Saikosaponin B2 of 5 microM induces differentiation of B
16 melanoma cells, with potentiation of expressions of melanogenesis and tyrosinase.

>  <CAS>
58316-41-9

>  <Col>
11

>  <Formula>
C42H68O13

>  <ID>
T3810

>  <Index>
760

>  <MOLENAME>
Saikosaponin B2

>  <MolWt>
780.993

>  <Pathways>
Others

>  <Plate>
PLATE 010

>  <QR code>
1151478077

>  <Receptor>
Others

>  <Reference>
1. Lin LT,et al. Saikosaponin b2 is a naturally occurring terpenoid that efficiently inhibits hepatitis C virus entry. J Hepatol. 2015 Mar;62(3):541-8. doi: 10.

>  <Row>
D

>  <SMILES>
CC1C(C(C(C(O1)OC2CCC3(C(C2(C)CO)CCC4(C3C=CC5=C6CC(CCC6(C(CC54C)O)CO)(C)C)C)C)O)OC7C(C(C(C(O7)CO)O)O)O)O

>  <Target>
Others

>  <Weight>
10.1mg

$$$$
Lab-1.sdf
  ChemDraw05232018482D

 56 62  0  0  0  0  0  0  0  0999 V2000
   -1.9864    0.0000    0.0000 C   0  0  0  0  0  0  0  0  0  0  0  0
   -2.5183    0.0000    0.0000 C   0  0  0  0  0  0  0  0  0  0  0  0
   -3.3304    0.0000    0.0000 C   0  0  0  0  0  0  0  0  0  0  0  0
   -3.8622    0.0000    0.0000 C   0  0  0  0  0  0  0  0  0  0  0  0
   -3.5819    0.0000    0.0000 C   0  0  0  0  0  0  0  0  0  0  0  0
   -2.7698    0.0000    0.0000 C   0  0  0  0  0  0  0  0  0  0  0  0
   -2.2380    0.0000    0.0000 O   0  0  0  0  0  0  0  0  0  0  0  0
   -2.4895    0.0000    0.0000 O   0  0  0  0  0  0  0  0  0  0  0  0
   -1.6774    0.0000    0.0000 C   0  0  0  0  0  0  0  0  0  0  0  0
   -1.1455    0.0000    0.0000 C   0  0  0  0  0  0  0  0  0  0  0  0
   -0.3334    0.0000    0.0000 C   0  0  0  0  0  0  0  0  0  0  0  0
   -0.0531    0.0000    0.0000 C   0  0  0  0  0  0  0  0  0  0  0  0
   -0.5850    0.0000    0.0000 O   0  0  0  0  0  0  0  0  0  0  0  0
   -1.3971    0.0000    0.0000 C   0  0  0  0  0  0  0  0  0  0  0  0
   -1.9289    0.0000    0.0000 O   0  0  0  0  0  0  0  0  0  0  0  0
   -1.6486    0.0000    0.0000 C   0  0  0  0  0  0  0  0  0  0  0  0
   -0.8365    0.0000    0.0000 C   0  0  0  0  0  0  0  0  0  0  0  0
   -0.5562    0.0000    0.0000 C   0  0  0  0  0  0  0  0  0  0  0  0
   -1.0880    0.0000    0.0000 C   0  0  0  0  0  0  0  0  0  0  0  0
   -0.8077    0.0000    0.0000 C   0  0  0  0  0  0  0  0  0  0  0  0
    0.0045    0.0000    0.0000 C   0  0  0  0  0  0  0  0  0  0  0  0
    0.5363    0.0000    0.0000 C   0  0  0  0  0  0  0  0  0  0  0  0
    0.2560    0.0000    0.0000 C   0  0  0  0  0  0  0  0  0  0  0  0
    0.9074    0.0000    0.0000 C   0  0  0  0  0  0  0  0  0  0  0  0
    1.5902    0.0000    0.0000 C   0  0  0  0  0  0  0  0  0  0  0  0
    1.3609    0.0000    0.0000 C   0  0  0  0  0  0  0  0  0  0  0  0
    1.8673    0.0000    0.0000 C   0  0  0  0  0  0  0  0  0  0  0  0
    2.2271    0.0000    0.0000 C   0  0  0  0  0  0  0  0  0  0  0  0
    3.0444    0.0000    0.0000 C   0  0  0  0  0  0  0  0  0  0  0  0
    3.1896    0.0000    0.0000 C   0  0  0  0  0  0  0  0  0  0  0  0
    2.4621    0.0000    0.0000 O   0  0  0  0  0  0  0  0  0  0  0  0
    3.9320    0.0000    0.0000 C   0  0  0  0  0  0  0  0  0  0  0  0
    4.6744    0.0000    0.0000 C   0  0  0  0  0  0  0  0  0  0  0  0
    4.2918    0.0000    0.0000 C   0  0  0  0  0  0  0  0  0  0  0  0
    3.5721    0.0000    0.0000 O   0  0  0  0  0  0  0  0  0  0  0  0
    1.1666    0.0000    0.0000 C   0  0  0  0  0  0  0  0  0  0  0  0
    0.0584    0.0000    0.0000 C   0  0  0  0  0  0  0  0  0  0  0  0
    0.2848    0.0000    0.0000 O   0  0  0  0  0  0  0  0  0  0  0  0
   -1.9001    0.0000    0.0000 C   0  0  0  0  0  0  0  0  0  0  0  0
   -2.1804    0.0000    0.0000 C   0  0  0  0  0  0  0  0  0  0  0  0
   -2.9925    0.0000    0.0000 C   0  0  0  0  0  0  0  0  0  0  0  0
   -3.5243    0.0000    0.0000 C   0  0  0  0  0  0  0  0  0  0  0  0
   -3.2440    0.0000    0.0000 C   0  0  0  0  0  0  0  0  0  0  0  0
   -2.4319    0.0000    0.0000 C   0  0  0  0  0  0  0  0  0  0  0  0
   -4.3366    0.0000    0.0000 O   0  0  0  0  0  0  0  0  0  0  0  0
   -2.8757    0.0000    0.0000 C   0  0  0  0  0  0  0  0  0  0  0  0
   -3.6043    0.0000    0.0000 C   0  0  0  0  0  0  0  0  0  0  0  0
   -1.6198    0.0000    0.0000 C   0  0  0  0  0  0  0  0  0  0  0  0
   -0.2453    0.0000    0.0000 C   0  0  0  0  0  0  0  0  0  0  0  0
    0.7591    0.0000    0.0000 C   0  0  0  0  0  0  0  0  0  0  0  0
    1.2909    0.0000    0.0000 O   0  0  0  0  0  0  0  0  0  0  0  0
    0.1985    0.0000    0.0000 O   0  0  0  0  0  0  0  0  0  0  0  0
   -1.4258    0.0000    0.0000 O   0  0  0  0  0  0  0  0  0  0  0  0
   -4.1137    0.0000    0.0000 O   0  0  0  0  0  0  0  0  0  0  0  0
   -4.6744    0.0000    0.0000 O   0  0  0  0  0  0  0  0  0  0  0  0
   -3.6107    0.0000    0.0000 O   0  0  0  0  0  0  0  0  0  0  0  0
  1  2  1  0      
  2  3  1  0      
  3  4  1  0      
  4  5  1  0      
  5  6  1  0      
  6  7  1  0      
  2  7  1  0      
  6  8  1  0      
  8  9  1  0      
  9 10  1  0      
 10 11  1  0      
 11 12  1  0      
 12 13  1  0      
 13 14  1  0      
  9 14  1  0      
 14 15  1  0      
 15 16  1  0      
 16 17  1  0      
 17 18  1  0      
 18 19  1  0      
 19 20  1  0      
 20 21  1  0      
 21 22  1  0      
 22 23  1  0      
 18 23  1  0      
 23 24  1  0      
 24 25  1  0      
 25 26  1  0      
 22 26  1  0      
 26 27  1  0      
 27 28  1  0      
 28 29  1  0      
 29 30  1  0      
 30 31  1  0      
 27 31  1  0      
 30 32  1  0      
 32 33  1  0      
 32 34  1  0      
 32 35  1  0      
 27 36  1  0      
 23 37  1  0      
 21 38  1  0      
 19 39  1  0      
 39 40  1  0      
 16 40  1  0      
 40 41  1  0      
 41 42  1  0      
 42 43  1  0      
 43 44  1  0      
 39 44  1  0      
 42 45  1  0      
 41 46  1  0      
 41 47  1  0      
 39 48  1  0      
 18 49  1  0      
 12 50  1  0      
 50 51  1  0      
 11 52  1  0      
 10 53  1  0      
  5 54  1  0      
  4 55  1  0      
  3 56  1  0      
M  END
>  <Bioactivity>
Pseudoginsenoside-F11 (PF11) has been demonstrated to antagonize the learning and memory deficits induced by scopolamine, morphine and methamphetamine in mice. 

>  <CAS>
69884-00-0

>  <Col>
2

>  <Formula>
C42H72O14

>  <ID>
T3920

>  <Index>
761

>  <MOLENAME>
Pseudoginsenoside F11

>  <MolWt>
801.01

>  <Pathways>
Others

>  <Plate>
PLATE 010

>  <QR code>
1151478065

>  <Receptor>
Others

>  <Reference>
1. Wang H, et al. The pseudoginsenoside F11 ameliorates cisplatin-induced nephrotoxicity without compromising its anti-tumor activity in vivo. Scientific Reports [2014, 4:4986]

>  <Row>
E

>  <SMILES>
CC1C(C(C(C(O1)OC2C(C(C(OC2OC3CC4(C(CC(C5C4(CCC5C6(CCC(O6)C(C)(C)O)C)C)O)C7(C3C(C(CC7)O)(C)C)C)C)CO)O)O)O)O)O

>  <Target>
Others

>  <Weight>
10.2mg

$$$$
Lab-1.sdf
  ChemDraw05232018482D

 41 45  0  0  0  0  0  0  0  0999 V2000
    1.0717    0.0000    0.0000 C   0  0  0  0  0  0  0  0  0  0  0  0
    0.3572    0.0000    0.0000 C   0  0  0  0  0  0  0  0  0  0  0  0
    0.3572    0.0000    0.0000 C   0  0  0  0  0  0  0  0  0  0  0  0
    1.0717    0.0000    0.0000 C   0  0  0  0  0  0  0  0  0  0  0  0
    1.7861    0.0000    0.0000 C   0  0  0  0  0  0  0  0  0  0  0  0
    1.7861    0.0000    0.0000 C   0  0  0  0  0  0  0  0  0  0  0  0
    2.5006    0.0000    0.0000 O   0  0  0  0  0  0  0  0  0  0  0  0
    3.2151    0.0000    0.0000 C   0  0  0  0  0  0  0  0  0  0  0  0
    3.9294    0.0000    0.0000 C   0  0  0  0  0  0  0  0  0  0  0  0
    4.6439    0.0000    0.0000 C   0  0  0  0  0  0  0  0  0  0  0  0
    4.6439    0.0000    0.0000 C   0  0  0  0  0  0  0  0  0  0  0  0
    3.9294    0.0000    0.0000 C   0  0  0  0  0  0  0  0  0  0  0  0
    3.2151    0.0000    0.0000 O   0  0  0  0  0  0  0  0  0  0  0  0
    3.9294    0.0000    0.0000 C   0  0  0  0  0  0  0  0  0  0  0  0
    4.6439    0.0000    0.0000 O   0  0  0  0  0  0  0  0  0  0  0  0
    5.3584    0.0000    0.0000 O   0  0  0  0  0  0  0  0  0  0  0  0
    5.3584    0.0000    0.0000 O   0  0  0  0  0  0  0  0  0  0  0  0
    3.9294    0.0000    0.0000 O   0  0  0  0  0  0  0  0  0  0  0  0
    2.5006    0.0000    0.0000 O   0  0  0  0  0  0  0  0  0  0  0  0
   -0.3572    0.0000    0.0000 O   0  0  0  0  0  0  0  0  0  0  0  0
   -1.0717    0.0000    0.0000 C   0  0  0  0  0  0  0  0  0  0  0  0
   -1.7861    0.0000    0.0000 C   0  0  0  0  0  0  0  0  0  0  0  0
   -2.5006    0.0000    0.0000 C   0  0  0  0  0  0  0  0  0  0  0  0
   -2.5006    0.0000    0.0000 C   0  0  0  0  0  0  0  0  0  0  0  0
   -1.7861    0.0000    0.0000 C   0  0  0  0  0  0  0  0  0  0  0  0
   -1.0717    0.0000    0.0000 C   0  0  0  0  0  0  0  0  0  0  0  0
   -0.3572    0.0000    0.0000 C   0  0  0  0  0  0  0  0  0  0  0  0
   -0.3572    0.0000    0.0000 O   0  0  0  0  0  0  0  0  0  0  0  0
   -1.7861    0.0000    0.0000 O   0  0  0  0  0  0  0  0  0  0  0  0
   -3.2151    0.0000    0.0000 C   0  0  0  0  0  0  0  0  0  0  0  0
   -3.9294    0.0000    0.0000 C   0  0  0  0  0  0  0  0  0  0  0  0
   -4.6439    0.0000    0.0000 C   0  0  0  0  0  0  0  0  0  0  0  0
   -4.6439    0.0000    0.0000 C   0  0  0  0  0  0  0  0  0  0  0  0
   -3.9294    0.0000    0.0000 C   0  0  0  0  0  0  0  0  0  0  0  0
   -3.2151    0.0000    0.0000 O   0  0  0  0  0  0  0  0  0  0  0  0
   -3.9294    0.0000    0.0000 C   0  0  0  0  0  0  0  0  0  0  0  0
   -4.6439    0.0000    0.0000 O   0  0  0  0  0  0  0  0  0  0  0  0
   -5.3584    0.0000    0.0000 O   0  0  0  0  0  0  0  0  0  0  0  0
   -5.3584    0.0000    0.0000 O   0  0  0  0  0  0  0  0  0  0  0  0
   -3.9294    0.0000    0.0000 O   0  0  0  0  0  0  0  0  0  0  0  0
   -3.2151    0.0000    0.0000 O   0  0  0  0  0  0  0  0  0  0  0  0
  1  2  2  0      
  2  3  1  0      
  3  4  2  0      
  4  5  1  0      
  5  6  2  0      
  1  6  1  0      
  6  7  1  0      
  7  8  1  0      
  8  9  1  0      
  9 10  1  0      
 10 11  1  0      
 11 12  1  0      
 12 13  1  0      
  8 13  1  0      
 12 14  1  0      
 14 15  1  0      
 11 16  1  0      
 10 17  1  0      
  9 18  1  0      
  5 19  1  0      
  3 20  1  0      
 20 21  1  0      
 21 22  2  0      
 22 23  1  0      
 23 24  2  0      
 24 25  1  0      
 25 26  2  0      
 21 26  1  0      
 26 27  1  0      
  2 27  1  0      
 27 28  2  0      
 25 29  1  0      
 24 30  1  0      
 30 31  1  0      
 31 32  1  0      
 32 33  1  0      
 33 34  1  0      
 34 35  1  0      
 30 35  1  0      
 34 36  1  0      
 36 37  1  0      
 33 38  1  0      
 32 39  1  0      
 31 40  1  0      
 23 41  1  0      
M  END
>  <Bioactivity>
Neomangiferin has beneficial effects on high fat diet-induced nonalcoholic fatty liver disease in rats. Neomangiferin and mangiferin inhibit tartrate-resistant acid phosphatase, a biochemical marker o
f osteoclast function and bone resorption.

>  <CAS>
64809-67-2

>  <Col>
3

>  <Formula>
C25H28O16

>  <ID>
T3804

>  <Index>
762

>  <MOLENAME>
Neomangiferin

>  <MolWt>
584.483

>  <Pathways>
Others

>  <Plate>
PLATE 010

>  <QR code>
1151478064

>  <Receptor>
Others

>  <Reference>
1. Zhou C,et al. Beneficial effects of neomangiferin on high fat diet-induced nonalcoholic fatty liver disease in rats. 

>  <Row>
E

>  <SMILES>
C1=C2C(=CC(=C1OC3C(C(C(C(O3)CO)O)O)O)O)OC4=CC(=C(C(=C4C2=O)O)C5C(C(C(C(O5)CO)O)O)O)O

>  <Target>
Others

>  <Weight>
10.3mg

$$$$
Lab-1.sdf
  ChemDraw05232018482D

 55 60  0  0  0  0  0  0  0  0999 V2000
    4.4547    0.0000    0.0000 C   0  0  0  0  0  0  0  0  0  0  0  0
    3.8033    0.0000    0.0000 C   0  0  0  0  0  0  0  0  0  0  0  0
    3.9162    0.0000    0.0000 C   0  0  0  0  0  0  0  0  0  0  0  0
    3.2648    0.0000    0.0000 C   0  0  0  0  0  0  0  0  0  0  0  0
    3.3777    0.0000    0.0000 C   0  0  0  0  0  0  0  0  0  0  0  0
    2.7264    0.0000    0.0000 C   0  0  0  0  0  0  0  0  0  0  0  0
    2.0749    0.0000    0.0000 C   0  0  0  0  0  0  0  0  0  0  0  0
    2.2200    0.0000    0.0000 C   0  0  0  0  0  0  0  0  0  0  0  0
    2.4493    0.0000    0.0000 C   0  0  0  0  0  0  0  0  0  0  0  0
    1.7664    0.0000    0.0000 C   0  0  0  0  0  0  0  0  0  0  0  0
    1.1150    0.0000    0.0000 C   0  0  0  0  0  0  0  0  0  0  0  0
    1.3953    0.0000    0.0000 C   0  0  0  0  0  0  0  0  0  0  0  0
    0.8635    0.0000    0.0000 C   0  0  0  0  0  0  0  0  0  0  0  0
    0.0514    0.0000    0.0000 C   0  0  0  0  0  0  0  0  0  0  0  0
   -0.2289    0.0000    0.0000 C   0  0  0  0  0  0  0  0  0  0  0  0
    0.3029    0.0000    0.0000 C   0  0  0  0  0  0  0  0  0  0  0  0
    0.0226    0.0000    0.0000 C   0  0  0  0  0  0  0  0  0  0  0  0
   -0.7895    0.0000    0.0000 C   0  0  0  0  0  0  0  0  0  0  0  0
   -1.3213    0.0000    0.0000 C   0  0  0  0  0  0  0  0  0  0  0  0
   -1.0410    0.0000    0.0000 C   0  0  0  0  0  0  0  0  0  0  0  0
   -1.5728    0.0000    0.0000 C   0  0  0  0  0  0  0  0  0  0  0  0
   -2.3850    0.0000    0.0000 C   0  0  0  0  0  0  0  0  0  0  0  0
   -2.6653    0.0000    0.0000 C   0  0  0  0  0  0  0  0  0  0  0  0
   -2.1334    0.0000    0.0000 C   0  0  0  0  0  0  0  0  0  0  0  0
   -2.7453    0.0000    0.0000 C   0  0  0  0  0  0  0  0  0  0  0  0
   -2.0166    0.0000    0.0000 C   0  0  0  0  0  0  0  0  0  0  0  0
   -3.4775    0.0000    0.0000 O   0  0  0  0  0  0  0  0  0  0  0  0
   -4.0093    0.0000    0.0000 C   0  0  0  0  0  0  0  0  0  0  0  0
   -3.7290    0.0000    0.0000 C   0  0  0  0  0  0  0  0  0  0  0  0
   -4.2608    0.0000    0.0000 C   0  0  0  0  0  0  0  0  0  0  0  0
   -5.0729    0.0000    0.0000 C   0  0  0  0  0  0  0  0  0  0  0  0
   -5.3532    0.0000    0.0000 C   0  0  0  0  0  0  0  0  0  0  0  0
   -4.8214    0.0000    0.0000 O   0  0  0  0  0  0  0  0  0  0  0  0
   -6.1653    0.0000    0.0000 C   0  0  0  0  0  0  0  0  0  0  0  0
   -6.6973    0.0000    0.0000 O   0  0  0  0  0  0  0  0  0  0  0  0
   -5.6047    0.0000    0.0000 O   0  0  0  0  0  0  0  0  0  0  0  0
   -3.9805    0.0000    0.0000 O   0  0  0  0  0  0  0  0  0  0  0  0
   -2.9169    0.0000    0.0000 O   0  0  0  0  0  0  0  0  0  0  0  0
   -0.7607    0.0000    0.0000 C   0  0  0  0  0  0  0  0  0  0  0  0
    0.8347    0.0000    0.0000 C   0  0  0  0  0  0  0  0  0  0  0  0
    1.1438    0.0000    0.0000 O   0  0  0  0  0  0  0  0  0  0  0  0
    1.1746    0.0000    0.0000 C   0  0  0  0  0  0  0  0  0  0  0  0
    3.2327    0.0000    0.0000 O   0  0  0  0  0  0  0  0  0  0  0  0
    4.0500    0.0000    0.0000 C   0  0  0  0  0  0  0  0  0  0  0  0
    4.3609    0.0000    0.0000 C   0  0  0  0  0  0  0  0  0  0  0  0
    5.1781    0.0000    0.0000 C   0  0  0  0  0  0  0  0  0  0  0  0
    5.6845    0.0000    0.0000 C   0  0  0  0  0  0  0  0  0  0  0  0
    5.3736    0.0000    0.0000 C   0  0  0  0  0  0  0  0  0  0  0  0
    4.5563    0.0000    0.0000 O   0  0  0  0  0  0  0  0  0  0  0  0
    5.8799    0.0000    0.0000 C   0  0  0  0  0  0  0  0  0  0  0  0
    6.6973    0.0000    0.0000 O   0  0  0  0  0  0  0  0  0  0  0  0
    6.5017    0.0000    0.0000 O   0  0  0  0  0  0  0  0  0  0  0  0
    5.4890    0.0000    0.0000 O   0  0  0  0  0  0  0  0  0  0  0  0
    3.8545    0.0000    0.0000 O   0  0  0  0  0  0  0  0  0  0  0  0
    3.0391    0.0000    0.0000 C   0  0  0  0  0  0  0  0  0  0  0  0
  1  2  1  0      
  2  3  2  0      
  3  4  1  0      
  4  5  1  0      
  5  6  1  0      
  6  7  1  0      
  6  8  1  0      
  8  9  1  0      
  9 10  1  0      
 10 11  1  0      
 11 12  1  0      
  8 12  1  0      
 12 13  1  0      
 13 14  1  0      
 14 15  1  0      
 15 16  1  0      
 11 16  1  0      
 16 17  1  0      
 17 18  1  0      
 18 19  1  0      
 19 20  1  0      
 15 20  1  0      
 20 21  1  0      
 21 22  1  0      
 22 23  1  0      
 23 24  1  0      
 19 24  1  0      
 24 25  1  0      
 24 26  1  0      
 23 27  1  0      
 27 28  1  0      
 28 29  1  0      
 29 30  1  0      
 30 31  1  0      
 31 32  1  0      
 32 33  1  0      
 28 33  1  0      
 32 34  1  0      
 34 35  1  0      
 31 36  1  0      
 30 37  1  0      
 29 38  1  0      
 20 39  1  0      
 16 40  1  0      
 13 41  1  0      
 11 42  1  0      
  6 43  1  0      
 43 44  1  0      
 44 45  1  0      
 45 46  1  0      
 46 47  1  0      
 47 48  1  0      
 48 49  1  0      
 44 49  1  0      
 48 50  1  0      
 50 51  1  0      
 47 52  1  0      
 46 53  1  0      
 45 54  1  0      
  2 55  1  0      
M  END
>  <Bioactivity>
Ginsenoside F2 has antiproliferative activity against breast cancer stem cells (CSCs), induces apoptosis in breast CSCs by activating the intrinsic apoptotic pathway and mitochondrial dysfunction. 

>  <CAS>
62025-49-4

>  <Col>
4

>  <Formula>
C42H72O13

>  <ID>
T3916

>  <Index>
763

>  <MOLENAME>
Ginsenoside F2

>  <MolWt>
785

>  <Pathways>
Apoptosis

>  <Plate>
PLATE 010

>  <QR code>
1151478063

>  <Receptor>
Apoptosis inducer

>  <Reference>
1. Siraj FM1, SathishKumar N, Kim YJ, Kim SY, Yang DC.Ginsenoside F2 possesses anti-obesity activity via binding with PPAR¦Ã and inhibiting adipocyte differentiation in the 3T3-L1 cell line.J Enzyme I
nhib Med Chem. 2015 Feb;30(1):9-14.

>  <Row>
E

>  <SMILES>
CC(=CCCC(C)(C1CCC2(C1C(CC3C2(CCC4C3(CCC(C4(C)C)OC5C(C(C(C(O5)CO)O)O)O)C)C)O)C)OC6C(C(C(C(O6)CO)O)O)O)C

>  <Target>
Apoptosis inducer

>  <Weight>
10.1mg

$$$$
Lab-1.sdf
  ChemDraw05232018482D

 25 28  0  0  0  0  0  0  0  0999 V2000
    3.7808    0.0000    0.0000 C   0  0  0  0  0  0  0  0  0  0  0  0
    3.2406    0.0000    0.0000 O   0  0  0  0  0  0  0  0  0  0  0  0
    2.4304    0.0000    0.0000 C   0  0  0  0  0  0  0  0  0  0  0  0
    1.8903    0.0000    0.0000 C   0  0  0  0  0  0  0  0  0  0  0  0
    1.0802    0.0000    0.0000 C   0  0  0  0  0  0  0  0  0  0  0  0
    0.5401    0.0000    0.0000 C   0  0  0  0  0  0  0  0  0  0  0  0
   -0.2701    0.0000    0.0000 N   0  3  0  0  0  0  0  0  0  0  0  0
   -0.5402    0.0000    0.0000 C   0  0  0  0  0  0  0  0  0  0  0  0
   -0.0000    0.0000    0.0000 C   0  0  0  0  0  0  0  0  0  0  0  0
    0.8102    0.0000    0.0000 C   0  0  0  0  0  0  0  0  0  0  0  0
    1.3503    0.0000    0.0000 C   0  0  0  0  0  0  0  0  0  0  0  0
    2.1604    0.0000    0.0000 C   0  0  0  0  0  0  0  0  0  0  0  0
   -1.3503    0.0000    0.0000 C   0  0  0  0  0  0  0  0  0  0  0  0
   -1.6203    0.0000    0.0000 C   0  0  0  0  0  0  0  0  0  0  0  0
   -2.4305    0.0000    0.0000 C   0  0  0  0  0  0  0  0  0  0  0  0
   -2.9706    0.0000    0.0000 C   0  0  0  0  0  0  0  0  0  0  0  0
   -2.7005    0.0000    0.0000 C   0  0  0  0  0  0  0  0  0  0  0  0
   -1.8904    0.0000    0.0000 C   0  0  0  0  0  0  0  0  0  0  0  0
   -1.6203    0.0000    0.0000 C   0  0  0  0  0  0  0  0  0  0  0  0
   -0.8102    0.0000    0.0000 C   0  0  0  0  0  0  0  0  0  0  0  0
   -3.7808    0.0000    0.0000 O   0  0  0  0  0  0  0  0  0  0  0  0
   -2.7005    0.0000    0.0000 O   0  0  0  0  0  0  0  0  0  0  0  0
   -3.5108    0.0000    0.0000 C   0  0  0  0  0  0  0  0  0  0  0  0
    2.1604    0.0000    0.0000 O   0  0  0  0  0  0  0  0  0  0  0  0
    1.6203    0.0000    0.0000 C   0  0  0  0  0  0  0  0  0  0  0  0
  1  2  1  0      
  2  3  1  0      
  3  4  2  0      
  4  5  1  0      
  5  6  2  0      
  6  7  1  0      
  7  8  2  0      
  8  9  1  0      
  9 10  2  0      
  5 10  1  0      
 10 11  1  0      
 11 12  2  0      
  3 12  1  0      
  8 13  1  0      
 13 14  2  0      
 14 15  1  0      
 15 16  2  0      
 16 17  1  0      
 17 18  2  0      
 13 18  1  0      
 18 19  1  0      
 19 20  1  0      
  7 20  1  0      
 16 21  1  0      
 15 22  1  0      
 22 23  1  0      
  4 24  1  0      
 24 25  1  0      
M  CHG  1   7   1
M  END
>  <Bioactivity>
Jatrorrhizine is a protoberberine alkaloid isolated from Enantia chlorantha (Annonaceae) and other species. It was found to have antimicrobial and antifungal activity. It binds and noncompetitively in
hibits monoamine oxidase (IC50 4 micromolar for MAO-A and 62 for MAO-B).

>  <CAS>
3621-38-3

>  <Col>
5

>  <Formula>
C20H20NO4

>  <ID>
T3933

>  <Index>
764

>  <MOLENAME>
Jatrorrhizine

>  <MolWt>
338.382

>  <Pathways>
Metabolism

>  <Plate>
PLATE 010

>  <QR code>
1151478062

>  <Receptor>
MAO-A; MAO-B

>  <Reference>
1. Wu H1, He K2, Wang Y2, et al.The antihypercholesterolemic effect of jatrorrhizine isolated from Rhizoma Coptidis.Phytomedicine. 2014 Sep 25;21(11):1373-81.

>  <Row>
E

>  <SMILES>
COC1=C(C2=C[N+]3=C(C=C2C=C1)C4=CC(=C(C=C4CC3)O)OC)OC

>  <Target>
MAO Inhibitor (Monoamine oxidase)

>  <Weight>
10.4mg

$$$$
Lab-1.sdf
  ChemDraw05232018482D

 27 28  0  0  0  0  0  0  0  0999 V2000
   -4.6439    0.0000    0.0000 C   0  0  0  0  0  0  0  0  0  0  0  0
   -3.9295    0.0000    0.0000 O   0  0  0  0  0  0  0  0  0  0  0  0
   -3.9295    0.0000    0.0000 C   0  0  0  0  0  0  0  0  0  0  0  0
   -4.6439    0.0000    0.0000 C   0  0  0  0  0  0  0  0  0  0  0  0
   -4.6439    0.0000    0.0000 C   0  0  0  0  0  0  0  0  0  0  0  0
   -3.9295    0.0000    0.0000 C   0  0  0  0  0  0  0  0  0  0  0  0
   -3.2151    0.0000    0.0000 C   0  0  0  0  0  0  0  0  0  0  0  0
   -3.2151    0.0000    0.0000 C   0  0  0  0  0  0  0  0  0  0  0  0
   -2.5006    0.0000    0.0000 C   0  0  0  0  0  0  0  0  0  0  0  0
   -1.7861    0.0000    0.0000 C   0  0  0  0  0  0  0  0  0  0  0  0
   -1.0717    0.0000    0.0000 C   0  0  0  0  0  0  0  0  0  0  0  0
   -1.0717    0.0000    0.0000 O   0  0  0  0  0  0  0  0  0  0  0  0
   -0.3572    0.0000    0.0000 C   0  0  0  0  0  0  0  0  0  0  0  0
    0.3572    0.0000    0.0000 C   0  0  0  0  0  0  0  0  0  0  0  0
    0.3572    0.0000    0.0000 O   0  0  0  0  0  0  0  0  0  0  0  0
    1.0716    0.0000    0.0000 C   0  0  0  0  0  0  0  0  0  0  0  0
    1.7861    0.0000    0.0000 C   0  0  0  0  0  0  0  0  0  0  0  0
    2.5006    0.0000    0.0000 C   0  0  0  0  0  0  0  0  0  0  0  0
    3.2151    0.0000    0.0000 C   0  0  0  0  0  0  0  0  0  0  0  0
    3.9294    0.0000    0.0000 C   0  0  0  0  0  0  0  0  0  0  0  0
    3.9294    0.0000    0.0000 C   0  0  0  0  0  0  0  0  0  0  0  0
    3.2151    0.0000    0.0000 C   0  0  0  0  0  0  0  0  0  0  0  0
    2.5006    0.0000    0.0000 C   0  0  0  0  0  0  0  0  0  0  0  0
    4.6439    0.0000    0.0000 O   0  0  0  0  0  0  0  0  0  0  0  0
    4.6439    0.0000    0.0000 O   0  0  0  0  0  0  0  0  0  0  0  0
    5.3584    0.0000    0.0000 C   0  0  0  0  0  0  0  0  0  0  0  0
   -5.3584    0.0000    0.0000 O   0  0  0  0  0  0  0  0  0  0  0  0
  1  2  1  0      
  2  3  1  0      
  3  4  2  0      
  4  5  1  0      
  5  6  2  0      
  6  7  1  0      
  7  8  2  0      
  3  8  1  0      
  7  9  1  0      
  9 10  1  0      
 10 11  1  0      
 11 12  2  0      
 11 13  1  0      
 13 14  1  0      
 14 15  2  0      
 14 16  1  0      
 16 17  1  0      
 17 18  1  0      
 18 19  2  0      
 19 20  1  0      
 20 21  2  0      
 21 22  1  0      
 22 23  2  0      
 18 23  1  0      
 21 24  1  0      
 20 25  1  0      
 25 26  1  0      
  4 27  1  0      
M  END
>  <Bioactivity>
Tetrahydro Curcumin ameliorates renal damage by regulating inflammation and apoptosis.  It has long been used as a traditional medicine. In E. coli curcumin is a substrate for the enzyme NADPH-depende
nt curcumin reductase which catalyzes the metal-independent reduction of curcumin to dihydrocurcumin (DHC) as an intermediate product, followed by further reduction to Tetrahydro curcumin (THC) as an 
end product. Tetrahydrocurcumin (THC) exhibits many of the same physiologic and pharmacological activities as curcumin and in some systems may exert greater antioxidant activity than curcumin.

>  <CAS>
36062-04-1

>  <Col>
6

>  <Formula>
C21H24O6

>  <ID>
T3735

>  <Index>
765

>  <MOLENAME>
Tetrahydro Curcumin

>  <MolWt>
372.41

>  <Pathways>
Others

>  <Plate>
PLATE 010

>  <QR code>
1151478061

>  <Receptor>
Others

>  <Reference>
1.Kang N, et al.   Food Chem Toxicol. 2014 May;67:193-200.

>  <Row>
E

>  <SMILES>
COC1=C(C=CC(=C1)CCC(=O)CC(=O)CCC2=CC(=C(C=C2)O)OC)O

>  <Target>
Others

>  <Weight>
9.9mg

$$$$
Lab-1.sdf
  ChemDraw05232018482D

 24 26  0  0  0  0  0  0  0  0999 V2000
   -2.5007    0.0000    0.0000 C   0  0  0  0  0  0  0  0  0  0  0  0
   -2.5007    0.0000    0.0000 C   0  0  0  0  0  0  0  0  0  0  0  0
   -3.2151    0.0000    0.0000 C   0  0  0  0  0  0  0  0  0  0  0  0
   -3.2151    0.0000    0.0000 C   0  0  0  0  0  0  0  0  0  0  0  0
   -2.5007    0.0000    0.0000 C   0  0  0  0  0  0  0  0  0  0  0  0
   -2.5007    0.0000    0.0000 C   0  0  0  0  0  0  0  0  0  0  0  0
   -1.7862    0.0000    0.0000 C   0  0  0  0  0  0  0  0  0  0  0  0
   -1.0717    0.0000    0.0000 C   0  0  0  0  0  0  0  0  0  0  0  0
   -1.0717    0.0000    0.0000 C   0  0  0  0  0  0  0  0  0  0  0  0
   -1.7862    0.0000    0.0000 C   0  0  0  0  0  0  0  0  0  0  0  0
   -0.3573    0.0000    0.0000 C   0  0  0  0  0  0  0  0  0  0  0  0
   -0.3573    0.0000    0.0000 O   0  0  0  0  0  0  0  0  0  0  0  0
    0.3572    0.0000    0.0000 C   0  0  0  0  0  0  0  0  0  0  0  0
    0.3572    0.0000    0.0000 C   0  0  0  0  0  0  0  0  0  0  0  0
   -0.3573    0.0000    0.0000 O   0  0  0  0  0  0  0  0  0  0  0  0
    1.0717    0.0000    0.0000 C   0  0  0  0  0  0  0  0  0  0  0  0
    1.7862    0.0000    0.0000 C   0  0  0  0  0  0  0  0  0  0  0  0
    2.5006    0.0000    0.0000 C   0  0  0  0  0  0  0  0  0  0  0  0
    2.5006    0.0000    0.0000 C   0  0  0  0  0  0  0  0  0  0  0  0
    1.7862    0.0000    0.0000 C   0  0  0  0  0  0  0  0  0  0  0  0
    1.0717    0.0000    0.0000 C   0  0  0  0  0  0  0  0  0  0  0  0
    3.2151    0.0000    0.0000 O   0  0  0  0  0  0  0  0  0  0  0  0
   -3.2151    0.0000    0.0000 O   0  0  0  0  0  0  0  0  0  0  0  0
   -1.7862    0.0000    0.0000 C   0  0  0  0  0  0  0  0  0  0  0  0
  1  2  1  0      
  2  3  2  0      
  3  4  1  0      
  4  5  1  0      
  5  6  2  0      
  6  7  1  0      
  7  8  2  0      
  8  9  1  0      
  9 10  2  0      
  5 10  1  0      
  9 11  1  0      
 11 12  2  0      
 11 13  1  0      
 13 14  1  0      
 14 15  1  0      
  8 15  1  0      
 14 16  1  0      
 16 17  2  0      
 17 18  1  0      
 18 19  2  0      
 19 20  1  0      
 20 21  2  0      
 16 21  1  0      
 19 22  1  0      
  6 23  1  0      
  2 24  1  0      
M  END
>  <Bioactivity>
Bavachin is a weak antioxidant.Bavachin acts as a weak phytoestrogen by binding and activating the estrogen receptor.Bavachin stimulates bone formation and has potential activity against osteoporosi
s. Bavachin has antimutagenic effect, shows inhibitory activities against the antigen-induced degranulation.Bavachin has anti-inflammation effect, can protect cartilage from inflammation-mediated da
mage in joints of osteoarthritis patients, through decreasing IL-1 beta-induced activation of IKK-I kappaB alpha-NF-kappaB signaling pathway .

>  <CAS>
19879-32-4

>  <Col>
7

>  <Formula>
C20H20O4

>  <ID>
T3846

>  <Index>
766

>  <MOLENAME>
Bavachin

>  <MolWt>
324.376

>  <Pathways>
Endocrinology/ Hormones

>  <Plate>
PLATE 010

>  <QR code>
1151478060

>  <Receptor>
ER

>  <Reference>
1. Park J1,et al. Activation of Estrogen Receptor by Bavachin from Psoralea corylifolia. Biomol Ther (Seoul). 2012 Mar;20(2):183-8.

>  <Row>
E

>  <SMILES>
CC(=CCC1=C(C=C2C(=C1)C(=O)CC(O2)C3=CC=C(C=C3)O)O)C

>  <Target>
ER activator; IL

>  <Weight>
10.1mg

$$$$
Lab-1.sdf
  ChemDraw05232018482D

 39 42  0  0  0  0  0  0  0  0999 V2000
    3.0705    0.0000    0.0000 C   0  0  0  0  0  0  0  0  0  0  0  0
    2.2859    0.0000    0.0000 O   0  0  0  0  0  0  0  0  0  0  0  0
    1.6728    0.0000    0.0000 C   0  0  0  0  0  0  0  0  0  0  0  0
    0.8882    0.0000    0.0000 C   0  0  0  0  0  0  0  0  0  0  0  0
    0.2751    0.0000    0.0000 C   0  0  0  0  0  0  0  0  0  0  0  0
    0.4466    0.0000    0.0000 C   0  0  0  0  0  0  0  0  0  0  0  0
    1.2313    0.0000    0.0000 C   0  0  0  0  0  0  0  0  0  0  0  0
    1.8443    0.0000    0.0000 C   0  0  0  0  0  0  0  0  0  0  0  0
   -0.1664    0.0000    0.0000 C   0  0  0  0  0  0  0  0  0  0  0  0
   -0.9510    0.0000    0.0000 C   0  0  0  0  0  0  0  0  0  0  0  0
   -1.2059    0.0000    0.0000 C   0  0  0  0  0  0  0  0  0  0  0  0
   -2.0309    0.0000    0.0000 O   0  0  0  0  0  0  0  0  0  0  0  0
   -2.2859    0.0000    0.0000 C   0  0  0  0  0  0  0  0  0  0  0  0
   -3.0705    0.0000    0.0000 O   0  0  0  0  0  0  0  0  0  0  0  0
   -1.6184    0.0000    0.0000 C   0  0  0  0  0  0  0  0  0  0  0  0
   -2.0234    0.0000    0.0000 C   0  0  0  0  0  0  0  0  0  0  0  0
   -1.6035    0.0000    0.0000 C   0  0  0  0  0  0  0  0  0  0  0  0
   -0.7785    0.0000    0.0000 C   0  0  0  0  0  0  0  0  0  0  0  0
   -0.3585    0.0000    0.0000 C   0  0  0  0  0  0  0  0  0  0  0  0
   -0.7635    0.0000    0.0000 C   0  0  0  0  0  0  0  0  0  0  0  0
   -1.5885    0.0000    0.0000 C   0  0  0  0  0  0  0  0  0  0  0  0
   -2.0085    0.0000    0.0000 C   0  0  0  0  0  0  0  0  0  0  0  0
   -0.3436    0.0000    0.0000 O   0  0  0  0  0  0  0  0  0  0  0  0
   -0.7486    0.0000    0.0000 C   0  0  0  0  0  0  0  0  0  0  0  0
   -1.5735    0.0000    0.0000 C   0  0  0  0  0  0  0  0  0  0  0  0
   -1.9785    0.0000    0.0000 C   0  0  0  0  0  0  0  0  0  0  0  0
   -1.5586    0.0000    0.0000 C   0  0  0  0  0  0  0  0  0  0  0  0
   -0.7336    0.0000    0.0000 C   0  0  0  0  0  0  0  0  0  0  0  0
   -0.3286    0.0000    0.0000 O   0  0  0  0  0  0  0  0  0  0  0  0
   -0.3137    0.0000    0.0000 C   0  0  0  0  0  0  0  0  0  0  0  0
   -0.7187    0.0000    0.0000 O   0  0  0  0  0  0  0  0  0  0  0  0
   -1.9636    0.0000    0.0000 O   0  0  0  0  0  0  0  0  0  0  0  0
   -2.8035    0.0000    0.0000 O   0  0  0  0  0  0  0  0  0  0  0  0
   -1.9935    0.0000    0.0000 O   0  0  0  0  0  0  0  0  0  0  0  0
    0.4663    0.0000    0.0000 O   0  0  0  0  0  0  0  0  0  0  0  0
    0.8863    0.0000    0.0000 C   0  0  0  0  0  0  0  0  0  0  0  0
   -1.2134    0.0000    0.0000 O   0  0  0  0  0  0  0  0  0  0  0  0
    0.7167    0.0000    0.0000 O   0  0  0  0  0  0  0  0  0  0  0  0
   -0.0678    0.0000    0.0000 C   0  0  0  0  0  0  0  0  0  0  0  0
  1  2  1  0      
  2  3  1  0      
  3  4  2  0      
  4  5  1  0      
  5  6  2  0      
  6  7  1  0      
  7  8  2  0      
  3  8  1  0      
  6  9  1  0      
  9 10  1  0      
 10 11  1  0      
 11 12  1  0      
 12 13  1  0      
 13 14  2  0      
 13 15  1  0      
 10 15  1  0      
 15 16  1  0      
 16 17  1  0      
 17 18  2  0      
 18 19  1  0      
 19 20  2  0      
 20 21  1  0      
 21 22  2  0      
 17 22  1  0      
 20 23  1  0      
 23 24  1  0      
 24 25  1  0      
 25 26  1  0      
 26 27  1  0      
 27 28  1  0      
 28 29  1  0      
 24 29  1  0      
 28 30  1  0      
 30 31  1  0      
 27 32  1  0      
 26 33  1  0      
 25 34  1  0      
 19 35  1  0      
 35 36  1  0      
 15 37  1  0      
  4 38  1  0      
 38 39  1  0      
M  END
>  <Bioactivity>
Tracheloside significantly decreases the activity of alkaline phosphatase (AP), an estrogen-inducible marker enzyme, with an IC(50) value of 0.31 microg/ml, a level of inhibition comparable to that of
 tamoxifen (IC(50) = 0.43 microg/ml).

>  <CAS>
33464-71-0

>  <Col>
8

>  <Formula>
C27H34O12

>  <ID>
T3855

>  <Index>
767

>  <MOLENAME>
tracheloside

>  <MolWt>
550.557

>  <Pathways>
Others

>  <Plate>
PLATE 010

>  <QR code>
1151478059

>  <Receptor>
alkaline phosphatase (AP) inhibitor

>  <Reference>
1. Kitamura Y,et al. Lack of significant inhibitory effects of a plant lignan tracheloside on 2-amino-1-methyl-6-phenylimidazo[4,5-b]pyridine (PhIP)-induced mammary carcinogenesis in female Sprague-Da
wley rats. Cancer Lett. 2003 Oct 28;200(2):133-9.

>  <Row>
E

>  <SMILES>
COC1=C(C=C(C=C1)CC2COC(=O)C2(CC3=CC(=C(C=C3)OC4C(C(C(C(O4)CO)O)O)O)OC)O)OC

>  <Target>
phosphatase inhibitor?

>  <Weight>
10.2mg

$$$$
Lab-1.sdf
  ChemDraw05232018482D

 74 82  0  0  0  0  0  0  0  0999 V2000
    3.0271    0.0000    0.0000 C   0  0  0  0  0  0  0  0  0  0  0  0
    2.9455    0.0000    0.0000 C   0  0  0  0  0  0  0  0  0  0  0  0
    2.2334    0.0000    0.0000 C   0  0  0  0  0  0  0  0  0  0  0  0
    2.4094    0.0000    0.0000 C   0  0  0  0  0  0  0  0  0  0  0  0
    1.6973    0.0000    0.0000 C   0  0  0  0  0  0  0  0  0  0  0  0
    1.0811    0.0000    0.0000 C   0  0  0  0  0  0  0  0  0  0  0  0
    1.4124    0.0000    0.0000 C   0  0  0  0  0  0  0  0  0  0  0  0
    0.9237    0.0000    0.0000 C   0  0  0  0  0  0  0  0  0  0  0  0
    0.1037    0.0000    0.0000 C   0  0  0  0  0  0  0  0  0  0  0  0
   -0.2275    0.0000    0.0000 C   0  0  0  0  0  0  0  0  0  0  0  0
    0.2611    0.0000    0.0000 C   0  0  0  0  0  0  0  0  0  0  0  0
   -0.0701    0.0000    0.0000 C   0  0  0  0  0  0  0  0  0  0  0  0
   -0.8901    0.0000    0.0000 C   0  0  0  0  0  0  0  0  0  0  0  0
   -1.3788    0.0000    0.0000 C   0  0  0  0  0  0  0  0  0  0  0  0
   -1.0474    0.0000    0.0000 C   0  0  0  0  0  0  0  0  0  0  0  0
   -1.5361    0.0000    0.0000 C   0  0  0  0  0  0  0  0  0  0  0  0
   -2.3561    0.0000    0.0000 C   0  0  0  0  0  0  0  0  0  0  0  0
   -2.6874    0.0000    0.0000 C   0  0  0  0  0  0  0  0  0  0  0  0
   -2.1987    0.0000    0.0000 C   0  0  0  0  0  0  0  0  0  0  0  0
   -3.5074    0.0000    0.0000 O   0  0  0  0  0  0  0  0  0  0  0  0
   -3.8387    0.0000    0.0000 C   0  0  0  0  0  0  0  0  0  0  0  0
   -4.6587    0.0000    0.0000 C   0  0  0  0  0  0  0  0  0  0  0  0
   -4.9899    0.0000    0.0000 C   0  0  0  0  0  0  0  0  0  0  0  0
   -4.5013    0.0000    0.0000 C   0  0  0  0  0  0  0  0  0  0  0  0
   -3.6813    0.0000    0.0000 C   0  0  0  0  0  0  0  0  0  0  0  0
   -3.3500    0.0000    0.0000 O   0  0  0  0  0  0  0  0  0  0  0  0
   -3.1926    0.0000    0.0000 C   0  0  0  0  0  0  0  0  0  0  0  0
   -2.3727    0.0000    0.0000 O   0  0  0  0  0  0  0  0  0  0  0  0
   -4.8326    0.0000    0.0000 O   0  0  0  0  0  0  0  0  0  0  0  0
   -4.3439    0.0000    0.0000 C   0  0  0  0  0  0  0  0  0  0  0  0
   -4.6752    0.0000    0.0000 C   0  0  0  0  0  0  0  0  0  0  0  0
   -4.1866    0.0000    0.0000 C   0  0  0  0  0  0  0  0  0  0  0  0
   -3.3666    0.0000    0.0000 C   0  0  0  0  0  0  0  0  0  0  0  0
   -3.0353    0.0000    0.0000 C   0  0  0  0  0  0  0  0  0  0  0  0
   -3.5240    0.0000    0.0000 O   0  0  0  0  0  0  0  0  0  0  0  0
   -2.2153    0.0000    0.0000 C   0  0  0  0  0  0  0  0  0  0  0  0
   -2.8779    0.0000    0.0000 O   0  0  0  0  0  0  0  0  0  0  0  0
   -4.5179    0.0000    0.0000 O   0  0  0  0  0  0  0  0  0  0  0  0
   -5.4951    0.0000    0.0000 O   0  0  0  0  0  0  0  0  0  0  0  0
   -5.8099    0.0000    0.0000 O   0  0  0  0  0  0  0  0  0  0  0  0
   -5.1473    0.0000    0.0000 O   0  0  0  0  0  0  0  0  0  0  0  0
   -5.9672    0.0000    0.0000 C   0  0  0  0  0  0  0  0  0  0  0  0
   -6.4559    0.0000    0.0000 C   0  0  0  0  0  0  0  0  0  0  0  0
   -7.2759    0.0000    0.0000 C   0  0  0  0  0  0  0  0  0  0  0  0
   -7.6072    0.0000    0.0000 C   0  0  0  0  0  0  0  0  0  0  0  0
   -7.1185    0.0000    0.0000 C   0  0  0  0  0  0  0  0  0  0  0  0
   -6.2985    0.0000    0.0000 O   0  0  0  0  0  0  0  0  0  0  0  0
   -7.4498    0.0000    0.0000 C   0  0  0  0  0  0  0  0  0  0  0  0
   -8.4272    0.0000    0.0000 O   0  0  0  0  0  0  0  0  0  0  0  0
   -7.7646    0.0000    0.0000 O   0  0  0  0  0  0  0  0  0  0  0  0
   -6.1246    0.0000    0.0000 O   0  0  0  0  0  0  0  0  0  0  0  0
   -0.7161    0.0000    0.0000 C   0  0  0  0  0  0  0  0  0  0  0  0
    1.8209    0.0000    0.0000 C   0  0  0  0  0  0  0  0  0  0  0  0
    3.2304    0.0000    0.0000 O   0  0  0  0  0  0  0  0  0  0  0  0
    3.5617    0.0000    0.0000 C   0  0  0  0  0  0  0  0  0  0  0  0
    4.3503    0.0000    0.0000 C   0  0  0  0  0  0  0  0  0  0  0  0
    4.5348    0.0000    0.0000 C   0  0  0  0  0  0  0  0  0  0  0  0
    5.3233    0.0000    0.0000 C   0  0  0  0  0  0  0  0  0  0  0  0
    5.9275    0.0000    0.0000 C   0  0  0  0  0  0  0  0  0  0  0  0
    5.5078    0.0000    0.0000 C   0  0  0  0  0  0  0  0  0  0  0  0
    6.2965    0.0000    0.0000 O   0  0  0  0  0  0  0  0  0  0  0  0
    6.4810    0.0000    0.0000 C   0  0  0  0  0  0  0  0  0  0  0  0
    5.8768    0.0000    0.0000 C   0  0  0  0  0  0  0  0  0  0  0  0
    6.0613    0.0000    0.0000 C   0  0  0  0  0  0  0  0  0  0  0  0
    6.8500    0.0000    0.0000 C   0  0  0  0  0  0  0  0  0  0  0  0
    7.4541    0.0000    0.0000 C   0  0  0  0  0  0  0  0  0  0  0  0
    7.2696    0.0000    0.0000 O   0  0  0  0  0  0  0  0  0  0  0  0
    8.2427    0.0000    0.0000 C   0  0  0  0  0  0  0  0  0  0  0  0
    8.4272    0.0000    0.0000 O   0  0  0  0  0  0  0  0  0  0  0  0
    7.0345    0.0000    0.0000 O   0  0  0  0  0  0  0  0  0  0  0  0
    5.4572    0.0000    0.0000 O   0  0  0  0  0  0  0  0  0  0  0  0
    5.0882    0.0000    0.0000 O   0  0  0  0  0  0  0  0  0  0  0  0
    4.1774    0.0000    0.0000 O   0  0  0  0  0  0  0  0  0  0  0  0
    4.0098    0.0000    0.0000 C   0  0  0  0  0  0  0  0  0  0  0  0
  1  2  1  0      
  2  3  1  0      
  3  4  1  0      
  4  5  1  0      
  5  6  1  0      
  6  7  1  0      
  3  7  1  0      
  7  8  1  0      
  8  9  1  0      
  9 10  1  0      
 10 11  1  0      
  6 11  1  0      
 11 12  1  0      
 12 13  1  0      
 13 14  2  0      
 14 15  1  0      
 10 15  1  0      
 15 16  1  0      
 16 17  1  0      
 17 18  1  0      
 18 19  1  0      
 14 19  1  0      
 18 20  1  0      
 20 21  1  0      
 21 22  1  0      
 22 23  1  0      
 23 24  1  0      
 24 25  1  0      
 25 26  1  0      
 21 26  1  0      
 25 27  1  0      
 27 28  1  0      
 24 29  1  0      
 29 30  1  0      
 30 31  1  0      
 31 32  1  0      
 32 33  1  0      
 33 34  1  0      
 34 35  1  0      
 30 35  1  0      
 34 36  1  0      
 33 37  1  0      
 32 38  1  0      
 31 39  1  0      
 23 40  1  0      
 22 41  1  0      
 41 42  1  0      
 42 43  1  0      
 43 44  1  0      
 44 45  1  0      
 45 46  1  0      
 46 47  1  0      
 42 47  1  0      
 46 48  1  0      
 45 49  1  0      
 44 50  1  0      
 43 51  1  0      
 15 52  1  0      
  7 53  1  0      
  4 54  1  0      
 54 55  1  0      
  2 55  1  0      
 55 56  1  0      
 56 57  1  0      
 57 58  1  0      
 58 59  1  0      
 58 60  1  0      
 60 61  1  0      
 61 62  1  0      
 62 63  1  0      
 63 64  1  0      
 64 65  1  0      
 65 66  1  0      
 66 67  1  0      
 62 67  1  0      
 66 68  1  0      
 68 69  1  0      
 65 70  1  0      
 64 71  1  0      
 63 72  1  0      
 55 73  1  0      
 73 74  1  0      
M  END
>  <Bioactivity>
Methyl protodioscin has antitumor property. Methyl protodioscin potentially increase HDL cholesterol while reducing LDL cholesterol and triglycerides.Methyl protodioscin induced apoptotic process in h
uman A549 cells is closely associated with Mitochondrial membrane potential, mitochondrial cytochrome c and caspase-3 

>  <CAS>
54522-52-0

>  <Col>
9

>  <Formula>
C52H86O22

>  <ID>
T3771

>  <Index>
768

>  <MOLENAME>
Methyl protodioscin

>  <MolWt>
1063.23

>  <Pathways>
Apoptosis

>  <Plate>
PLATE 010

>  <QR code>
1151478058

>  <Receptor>
Apoptosis inducer

>  <Reference>
1. Ma W,et al.Methyl protodioscin increases ABCA1 expression and cholesterol efflux while inhibiting gene expressions for synthesis of cholesterol and triglycerides by suppressing SREBP transcription 
and microRNA 33a/b levels.Atherosclerosis. 2015 Apr;239(2):566-70. 

>  <Row>
E

>  <SMILES>
CC1C2C(CC3C2(CCC4C3CC=C5C4(CCC(C5)OC6C(C(C(C(O6)CO)OC7C(C(C(C(O7)C)O)O)O)O)OC8C(C(C(C(O8)C)O)O)O)C)C)OC1(CCC(C)COC9C(C(C(C(O9)CO)O)O)O)OC

>  <Target>
Apoptosis inducer

>  <Weight>
10.1mg

$$$$
Lab-1.sdf
  ChemDraw05232018482D

 57 59  0  0  0  0  0  0  0  0999 V2000
    3.5723    0.0000    0.0000 C   0  0  0  0  0  0  0  0  0  0  0  0
    2.8579    0.0000    0.0000 C   0  0  0  0  0  0  0  0  0  0  0  0
    2.1434    0.0000    0.0000 C   0  0  0  0  0  0  0  0  0  0  0  0
    2.1434    0.0000    0.0000 C   0  0  0  0  0  0  0  0  0  0  0  0
    1.4289    0.0000    0.0000 C   0  0  0  0  0  0  0  0  0  0  0  0
    1.4289    0.0000    0.0000 C   0  0  0  0  0  0  0  0  0  0  0  0
    0.7144    0.0000    0.0000 C   0  0  0  0  0  0  0  0  0  0  0  0
    0.0001    0.0000    0.0000 C   0  0  0  0  0  0  0  0  0  0  0  0
    0.7144    0.0000    0.0000 C   0  0  0  0  0  0  0  0  0  0  0  0
    0.0001    0.0000    0.0000 C   0  0  0  0  0  0  0  0  0  0  0  0
    0.0001    0.0000    0.0000 C   0  0  0  0  0  0  0  0  0  0  0  0
   -0.7145    0.0000    0.0000 C   0  0  0  0  0  0  0  0  0  0  0  0
   -1.4289    0.0000    0.0000 C   0  0  0  0  0  0  0  0  0  0  0  0
   -0.7145    0.0000    0.0000 C   0  0  0  0  0  0  0  0  0  0  0  0
    0.0001    0.0000    0.0000 O   0  0  0  0  0  0  0  0  0  0  0  0
   -1.4289    0.0000    0.0000 O   0  0  0  0  0  0  0  0  0  0  0  0
   -1.4289    0.0000    0.0000 C   0  0  0  0  0  0  0  0  0  0  0  0
   -0.7145    0.0000    0.0000 C   0  0  0  0  0  0  0  0  0  0  0  0
   -0.7145    0.0000    0.0000 C   0  0  0  0  0  0  0  0  0  0  0  0
   -1.4289    0.0000    0.0000 C   0  0  0  0  0  0  0  0  0  0  0  0
   -2.1434    0.0000    0.0000 C   0  0  0  0  0  0  0  0  0  0  0  0
   -2.1434    0.0000    0.0000 O   0  0  0  0  0  0  0  0  0  0  0  0
   -2.8578    0.0000    0.0000 C   0  0  0  0  0  0  0  0  0  0  0  0
   -2.8578    0.0000    0.0000 O   0  0  0  0  0  0  0  0  0  0  0  0
   -3.5723    0.0000    0.0000 C   0  0  0  0  0  0  0  0  0  0  0  0
   -3.5723    0.0000    0.0000 C   0  0  0  0  0  0  0  0  0  0  0  0
   -4.2868    0.0000    0.0000 C   0  0  0  0  0  0  0  0  0  0  0  0
   -5.0012    0.0000    0.0000 C   0  0  0  0  0  0  0  0  0  0  0  0
   -5.0012    0.0000    0.0000 C   0  0  0  0  0  0  0  0  0  0  0  0
   -4.2868    0.0000    0.0000 O   0  0  0  0  0  0  0  0  0  0  0  0
   -5.7157    0.0000    0.0000 C   0  0  0  0  0  0  0  0  0  0  0  0
   -6.4302    0.0000    0.0000 O   0  0  0  0  0  0  0  0  0  0  0  0
   -5.7157    0.0000    0.0000 O   0  0  0  0  0  0  0  0  0  0  0  0
   -4.2868    0.0000    0.0000 O   0  0  0  0  0  0  0  0  0  0  0  0
   -2.8578    0.0000    0.0000 O   0  0  0  0  0  0  0  0  0  0  0  0
   -1.4289    0.0000    0.0000 O   0  0  0  0  0  0  0  0  0  0  0  0
    0.0001    0.0000    0.0000 O   0  0  0  0  0  0  0  0  0  0  0  0
    0.0001    0.0000    0.0000 O   0  0  0  0  0  0  0  0  0  0  0  0
    2.8579    0.0000    0.0000 C   0  0  0  0  0  0  0  0  0  0  0  0
    3.5723    0.0000    0.0000 C   0  0  0  0  0  0  0  0  0  0  0  0
    3.5723    0.0000    0.0000 C   0  0  0  0  0  0  0  0  0  0  0  0
    4.2868    0.0000    0.0000 C   0  0  0  0  0  0  0  0  0  0  0  0
    5.0013    0.0000    0.0000 C   0  0  0  0  0  0  0  0  0  0  0  0
    4.2868    0.0000    0.0000 C   0  0  0  0  0  0  0  0  0  0  0  0
    3.5723    0.0000    0.0000 O   0  0  0  0  0  0  0  0  0  0  0  0
    5.0013    0.0000    0.0000 O   0  0  0  0  0  0  0  0  0  0  0  0
    5.0013    0.0000    0.0000 C   0  0  0  0  0  0  0  0  0  0  0  0
    4.2868    0.0000    0.0000 C   0  0  0  0  0  0  0  0  0  0  0  0
    4.2868    0.0000    0.0000 C   0  0  0  0  0  0  0  0  0  0  0  0
    5.0013    0.0000    0.0000 C   0  0  0  0  0  0  0  0  0  0  0  0
    5.7157    0.0000    0.0000 C   0  0  0  0  0  0  0  0  0  0  0  0
    5.7157    0.0000    0.0000 O   0  0  0  0  0  0  0  0  0  0  0  0
    6.4302    0.0000    0.0000 C   0  0  0  0  0  0  0  0  0  0  0  0
    6.4302    0.0000    0.0000 O   0  0  0  0  0  0  0  0  0  0  0  0
    5.0013    0.0000    0.0000 O   0  0  0  0  0  0  0  0  0  0  0  0
    3.5723    0.0000    0.0000 O   0  0  0  0  0  0  0  0  0  0  0  0
    3.5723    0.0000    0.0000 O   0  0  0  0  0  0  0  0  0  0  0  0
  1  2  1  0      
  2  3  2  0      
  3  4  1  4      
  4  5  2  0      
  5  6  1  4      
  6  7  2  0      
  7  8  1  4      
  9  7  1  4      
  9 10  2  0      
 11 10  1  4      
 11 12  2  0      
 12 13  1  0      
 12 14  1  0      
 14 15  2  0      
 14 16  1  0      
 16 17  1  0      
 17 18  1  0      
 18 19  1  0      
 19 20  1  0      
 20 21  1  0      
 21 22  1  0      
 17 22  1  0      
 21 23  1  0      
 23 24  1  0      
 24 25  1  0      
 25 26  1  0      
 26 27  1  0      
 27 28  1  0      
 28 29  1  0      
 29 30  1  0      
 25 30  1  0      
 29 31  1  0      
 31 32  1  0      
 28 33  1  0      
 27 34  1  0      
 26 35  1  0      
 20 36  1  0      
 19 37  1  0      
 18 38  1  0      
 39  2  1  4      
 39 40  2  0      
 41 40  1  4      
 41 42  2  0      
 42 43  1  0      
 42 44  1  0      
 44 45  2  0      
 44 46  1  0      
 46 47  1  0      
 47 48  1  0      
 48 49  1  0      
 49 50  1  0      
 50 51  1  0      
 51 52  1  0      
 47 52  1  0      
 51 53  1  0      
 53 54  1  0      
 50 55  1  0      
 49 56  1  0      
 48 57  1  0      
M  END
>  <Bioactivity>
Crocin has anti-inflammatory and anti-apoptotic effects against gastric ischemia-reperfusion injury in rats, the effect of crocin is mainly mediated by reducing the protein expression of iNOS and casp
ase-3.Crocin can ameliorate CCl4-induced liver injury via inhibition of inflammatory cytokines, caspase3 and oxidative stress along with modulation of liver metabolizing enzymes favoring elimination 
of CCl4 toxic metabolite. Crocin has antihyperlipidemic effect, may be due to the inhibition of pancreatic lipase and crocin, and its metabolite, crocetin, can improve hyperlipidemia. Crocin has anti
depressant effects by increasing CREB, BDNF and VGF levels in hippocampus.

>  <CAS>
55750-84-0

>  <Col>
10

>  <Formula>
C38H54O19

>  <ID>
T3779

>  <Index>
769

>  <MOLENAME>
Crocin II

>  <MolWt>
814.83

>  <Pathways>
Others

>  <Plate>
PLATE 010

>  <QR code>
1151478057

>  <Receptor>
Others

>  <Reference>
1. Lee IA,et al. Antihyperlipidemic effect of crocin isolated from the fructus of Gardenia jasminoides and its metabolite Crocetin. Biol Pharm Bull. 2005 Nov;28(11):2106-10.

>  <Row>
E

>  <SMILES>
CC(=CC=CC=C(C)C=CC=C(C)C(=O)OC1C(C(C(C(O1)COC2C(C(C(C(O2)CO)O)O)O)O)O)O)C=CC=C(C)C(=O)OC3C(C(C(C(O3)CO)O)O)O

>  <Target>
Others

>  <Weight>
10.2mg

$$$$
Lab-1.sdf
  ChemDraw05232018482D

 44 48  0  0  0  0  0  0  0  0999 V2000
    2.8448    0.0000    0.0000 C   0  0  0  0  0  0  0  0  0  0  0  0
    2.1934    0.0000    0.0000 C   0  0  0  0  0  0  0  0  0  0  0  0
    2.3063    0.0000    0.0000 C   0  0  0  0  0  0  0  0  0  0  0  0
    1.6549    0.0000    0.0000 C   0  0  0  0  0  0  0  0  0  0  0  0
    1.7678    0.0000    0.0000 C   0  0  0  0  0  0  0  0  0  0  0  0
    1.1165    0.0000    0.0000 C   0  0  0  0  0  0  0  0  0  0  0  0
    0.4651    0.0000    0.0000 C   0  0  0  0  0  0  0  0  0  0  0  0
    0.6101    0.0000    0.0000 C   0  0  0  0  0  0  0  0  0  0  0  0
    0.8394    0.0000    0.0000 C   0  0  0  0  0  0  0  0  0  0  0  0
    0.1566    0.0000    0.0000 C   0  0  0  0  0  0  0  0  0  0  0  0
   -0.4949    0.0000    0.0000 C   0  0  0  0  0  0  0  0  0  0  0  0
   -0.2146    0.0000    0.0000 C   0  0  0  0  0  0  0  0  0  0  0  0
   -0.7464    0.0000    0.0000 C   0  0  0  0  0  0  0  0  0  0  0  0
   -1.5585    0.0000    0.0000 C   0  0  0  0  0  0  0  0  0  0  0  0
   -1.8388    0.0000    0.0000 C   0  0  0  0  0  0  0  0  0  0  0  0
   -1.3070    0.0000    0.0000 C   0  0  0  0  0  0  0  0  0  0  0  0
   -1.5873    0.0000    0.0000 C   0  0  0  0  0  0  0  0  0  0  0  0
   -2.3994    0.0000    0.0000 C   0  0  0  0  0  0  0  0  0  0  0  0
   -2.9312    0.0000    0.0000 C   0  0  0  0  0  0  0  0  0  0  0  0
   -2.6509    0.0000    0.0000 C   0  0  0  0  0  0  0  0  0  0  0  0
   -3.1827    0.0000    0.0000 C   0  0  0  0  0  0  0  0  0  0  0  0
   -3.9948    0.0000    0.0000 C   0  0  0  0  0  0  0  0  0  0  0  0
   -4.2751    0.0000    0.0000 C   0  0  0  0  0  0  0  0  0  0  0  0
   -3.7433    0.0000    0.0000 C   0  0  0  0  0  0  0  0  0  0  0  0
   -4.3551    0.0000    0.0000 C   0  0  0  0  0  0  0  0  0  0  0  0
   -3.6265    0.0000    0.0000 C   0  0  0  0  0  0  0  0  0  0  0  0
   -5.0874    0.0000    0.0000 O   0  0  0  0  0  0  0  0  0  0  0  0
   -2.3706    0.0000    0.0000 C   0  0  0  0  0  0  0  0  0  0  0  0
   -0.7752    0.0000    0.0000 C   0  0  0  0  0  0  0  0  0  0  0  0
   -0.4661    0.0000    0.0000 O   0  0  0  0  0  0  0  0  0  0  0  0
   -0.4353    0.0000    0.0000 C   0  0  0  0  0  0  0  0  0  0  0  0
    1.6228    0.0000    0.0000 O   0  0  0  0  0  0  0  0  0  0  0  0
    2.4401    0.0000    0.0000 C   0  0  0  0  0  0  0  0  0  0  0  0
    2.7510    0.0000    0.0000 C   0  0  0  0  0  0  0  0  0  0  0  0
    3.5682    0.0000    0.0000 C   0  0  0  0  0  0  0  0  0  0  0  0
    4.0746    0.0000    0.0000 C   0  0  0  0  0  0  0  0  0  0  0  0
    3.7637    0.0000    0.0000 C   0  0  0  0  0  0  0  0  0  0  0  0
    2.9464    0.0000    0.0000 O   0  0  0  0  0  0  0  0  0  0  0  0
    4.2700    0.0000    0.0000 C   0  0  0  0  0  0  0  0  0  0  0  0
    5.0874    0.0000    0.0000 O   0  0  0  0  0  0  0  0  0  0  0  0
    4.8919    0.0000    0.0000 O   0  0  0  0  0  0  0  0  0  0  0  0
    3.8791    0.0000    0.0000 O   0  0  0  0  0  0  0  0  0  0  0  0
    2.2446    0.0000    0.0000 O   0  0  0  0  0  0  0  0  0  0  0  0
    1.4292    0.0000    0.0000 C   0  0  0  0  0  0  0  0  0  0  0  0
  1  2  1  0      
  2  3  2  0      
  3  4  1  0      
  4  5  1  0      
  5  6  1  0      
  6  7  1  0      
  6  8  1  0      
  8  9  1  0      
  9 10  1  0      
 10 11  1  0      
 11 12  1  0      
  8 12  1  0      
 12 13  1  0      
 13 14  1  0      
 14 15  1  0      
 15 16  1  0      
 11 16  1  0      
 16 17  1  0      
 17 18  1  0      
 18 19  1  0      
 19 20  1  0      
 15 20  1  0      
 20 21  1  0      
 21 22  1  0      
 22 23  1  0      
 23 24  1  0      
 19 24  1  0      
 24 25  1  0      
 24 26  1  0      
 23 27  1  0      
 20 28  1  0      
 16 29  1  0      
 13 30  1  0      
 11 31  1  0      
  6 32  1  0      
 32 33  1  0      
 33 34  1  0      
 34 35  1  0      
 35 36  1  0      
 36 37  1  0      
 37 38  1  0      
 33 38  1  0      
 37 39  1  0      
 39 40  1  0      
 36 41  1  0      
 35 42  1  0      
 34 43  1  0      
  2 44  1  0      
M  END
>  <Bioactivity>
Ginsenoside compound K (C-K) could be a potentially effective anti-colorectal cancer agent.C-K showed significant anti-proliferative effects in HCT-116 and SW-480 cells at concentrations of 30-50 ?M.
C-K could be a potential drug for pediatric AML intervention and to improve the outcome of pediatric AML treatment, via significant G1 cell cycle arrest and apoptosis.C-K reduced the expression level
s of the inducible NO synthase (iNOS) and COX-2 proteins and inhibited the activation of NF-kB, a nuclear transcription factor.5. Ginsenoside Rb1 can be transformed to CK by intestinal bacteria, and 
C-K may be effective against inflammation.

>  <CAS>
39262-14-1

>  <Col>
11

>  <Formula>
C36H62O8

>  <ID>
T3811

>  <Index>
770

>  <MOLENAME>
(20S)-20-(¦Â-D-Glucopyranosyloxy)dammara-24-ene-3¦Â,12¦Â-diol

>  <MolWt>
622.884

>  <Pathways>
Cell cycle/ Checkpoint

>  <Plate>
PLATE 010

>  <QR code>
1151478056

>  <Receptor>
cell cycle arrest

>  <Reference>
1. Yang XD,et al. A review of biotransformation and pharmacology of ginsenoside compound K. Fitoterapia. 2015 Jan;100:208-20. 

>  <Row>
E

>  <SMILES>
CC(=CCCC(C)(C1CCC2(C1C(CC3C2(CCC4C3(CCC(C4(C)C)O)C)C)O)C)OC5C(C(C(C(O5)CO)O)O)O)C

>  <Target>
cell cycle arrest

>  <Weight>
10.4mg

$$$$
Lab-1.sdf
  ChemDraw05232018482D

 25 27  0  0  0  0  0  0  0  0999 V2000
   -1.4289    0.0000    0.0000 C   0  0  0  0  0  0  0  0  0  0  0  0
   -1.4289    0.0000    0.0000 O   0  0  0  0  0  0  0  0  0  0  0  0
   -0.7145    0.0000    0.0000 C   0  0  0  0  0  0  0  0  0  0  0  0
   -0.7145    0.0000    0.0000 C   0  0  0  0  0  0  0  0  0  0  0  0
   -0.0000    0.0000    0.0000 C   0  0  0  0  0  0  0  0  0  0  0  0
    0.7145    0.0000    0.0000 C   0  0  0  0  0  0  0  0  0  0  0  0
    0.7145    0.0000    0.0000 C   0  0  0  0  0  0  0  0  0  0  0  0
   -0.0000    0.0000    0.0000 C   0  0  0  0  0  0  0  0  0  0  0  0
    1.4289    0.0000    0.0000 C   0  0  0  0  0  0  0  0  0  0  0  0
    2.1434    0.0000    0.0000 C   0  0  0  0  0  0  0  0  0  0  0  0
    2.1434    0.0000    0.0000 C   0  0  0  0  0  0  0  0  0  0  0  0
    2.8579    0.0000    0.0000 O   0  0  0  0  0  0  0  0  0  0  0  0
    1.4289    0.0000    0.0000 O   0  0  0  0  0  0  0  0  0  0  0  0
   -1.4289    0.0000    0.0000 O   0  0  0  0  0  0  0  0  0  0  0  0
   -1.4289    0.0000    0.0000 C   0  0  0  0  0  0  0  0  0  0  0  0
   -0.7145    0.0000    0.0000 C   0  0  0  0  0  0  0  0  0  0  0  0
   -0.7145    0.0000    0.0000 C   0  0  0  0  0  0  0  0  0  0  0  0
   -1.4289    0.0000    0.0000 C   0  0  0  0  0  0  0  0  0  0  0  0
   -2.1434    0.0000    0.0000 C   0  0  0  0  0  0  0  0  0  0  0  0
   -2.1434    0.0000    0.0000 O   0  0  0  0  0  0  0  0  0  0  0  0
   -2.8579    0.0000    0.0000 C   0  0  0  0  0  0  0  0  0  0  0  0
   -2.8579    0.0000    0.0000 O   0  0  0  0  0  0  0  0  0  0  0  0
   -1.4289    0.0000    0.0000 O   0  0  0  0  0  0  0  0  0  0  0  0
   -0.0000    0.0000    0.0000 O   0  0  0  0  0  0  0  0  0  0  0  0
   -0.0000    0.0000    0.0000 O   0  0  0  0  0  0  0  0  0  0  0  0
  1  2  1  0      
  2  3  1  0      
  3  4  2  0      
  4  5  1  0      
  5  6  2  0      
  6  7  1  0      
  7  8  2  0      
  3  8  1  0      
  7  9  1  0      
  9 10  2  0      
 10 11  1  0      
 11 12  2  0      
 11 13  1  0      
  6 13  1  0      
  4 14  1  0      
 14 15  1  0      
 15 16  1  0      
 16 17  1  0      
 17 18  1  0      
 18 19  1  0      
 19 20  1  0      
 15 20  1  0      
 19 21  1  0      
 21 22  1  0      
 18 23  1  0      
 17 24  1  0      
 16 25  1  0      
M  END
>  <Bioactivity>
Scopolin formation is increased by the enhanced activity of PAL.Scopolin can reduce the clinical symptoms of rat AIA by inhibiting inflammation and angiogenesis,and this compound may be a potent agen
t for angiogenesis related diseases and can serve as a structural base for screening more potent synthetic analogs.

>  <CAS>
531-44-2

>  <Col>
2

>  <Formula>
C16H18O9

>  <ID>
T3888

>  <Index>
771

>  <MOLENAME>
scopolin

>  <MolWt>
354.311

>  <Pathways>
Others

>  <Plate>
PLATE 010

>  <QR code>
1151478044

>  <Receptor>
Others

>  <Reference>
1. Pan R,et al. Scopolin isolated from Erycibe obtusifolia Benth stems suppresses adjuvant-induced rat arthritis by inhibiting inflammation and angiogenesis. Int Immunopharmacol. 2009 Jul;9(7-8):859-6
9. 

>  <Row>
F

>  <SMILES>
COC1=C(C=C2C(=C1)C=CC(=O)O2)OC3C(C(C(C(O3)CO)O)O)O

>  <Target>
Others

>  <Weight>
10.1mg

$$$$
Lab-1.sdf
  ChemDraw05232018482D

 33 36  0  0  0  0  0  0  0  0999 V2000
    0.7144    0.0000    0.0000 C   0  0  0  0  0  0  0  0  0  0  0  0
    0.0001    0.0000    0.0000 C   0  0  0  0  0  0  0  0  0  0  0  0
    0.0001    0.0000    0.0000 C   0  0  0  0  0  0  0  0  0  0  0  0
    0.7144    0.0000    0.0000 O   0  0  0  0  0  0  0  0  0  0  0  0
    1.4289    0.0000    0.0000 C   0  0  0  0  0  0  0  0  0  0  0  0
    2.1434    0.0000    0.0000 C   0  0  0  0  0  0  0  0  0  0  0  0
    2.8579    0.0000    0.0000 C   0  0  0  0  0  0  0  0  0  0  0  0
    2.8579    0.0000    0.0000 C   0  0  0  0  0  0  0  0  0  0  0  0
    2.1434    0.0000    0.0000 C   0  0  0  0  0  0  0  0  0  0  0  0
    1.4289    0.0000    0.0000 C   0  0  0  0  0  0  0  0  0  0  0  0
    2.1434    0.0000    0.0000 O   0  0  0  0  0  0  0  0  0  0  0  0
    3.5722    0.0000    0.0000 O   0  0  0  0  0  0  0  0  0  0  0  0
   -0.7144    0.0000    0.0000 C   0  0  0  0  0  0  0  0  0  0  0  0
   -1.4289    0.0000    0.0000 C   0  0  0  0  0  0  0  0  0  0  0  0
   -2.1433    0.0000    0.0000 C   0  0  0  0  0  0  0  0  0  0  0  0
   -2.1433    0.0000    0.0000 C   0  0  0  0  0  0  0  0  0  0  0  0
   -1.4289    0.0000    0.0000 C   0  0  0  0  0  0  0  0  0  0  0  0
   -0.7144    0.0000    0.0000 C   0  0  0  0  0  0  0  0  0  0  0  0
   -1.4289    0.0000    0.0000 O   0  0  0  0  0  0  0  0  0  0  0  0
   -2.8578    0.0000    0.0000 O   0  0  0  0  0  0  0  0  0  0  0  0
   -2.8578    0.0000    0.0000 O   0  0  0  0  0  0  0  0  0  0  0  0
   -0.7144    0.0000    0.0000 O   0  0  0  0  0  0  0  0  0  0  0  0
   -0.7144    0.0000    0.0000 C   0  0  0  0  0  0  0  0  0  0  0  0
    0.0001    0.0000    0.0000 O   0  0  0  0  0  0  0  0  0  0  0  0
   -1.4289    0.0000    0.0000 C   0  0  0  0  0  0  0  0  0  0  0  0
   -1.4289    0.0000    0.0000 C   0  0  0  0  0  0  0  0  0  0  0  0
   -2.1433    0.0000    0.0000 C   0  0  0  0  0  0  0  0  0  0  0  0
   -2.8578    0.0000    0.0000 C   0  0  0  0  0  0  0  0  0  0  0  0
   -2.8578    0.0000    0.0000 C   0  0  0  0  0  0  0  0  0  0  0  0
   -2.1433    0.0000    0.0000 C   0  0  0  0  0  0  0  0  0  0  0  0
   -3.5722    0.0000    0.0000 O   0  0  0  0  0  0  0  0  0  0  0  0
   -3.5722    0.0000    0.0000 O   0  0  0  0  0  0  0  0  0  0  0  0
   -2.1433    0.0000    0.0000 O   0  0  0  0  0  0  0  0  0  0  0  0
  1  2  1  0      
  2  3  1  0      
  3  4  1  0      
  4  5  1  0      
  5  6  2  0      
  6  7  1  0      
  7  8  2  0      
  8  9  1  0      
  9 10  2  0      
  5 10  1  0      
  1 10  1  0      
  9 11  1  0      
  7 12  1  0      
  3 13  1  0      
 13 14  2  0      
 14 15  1  0      
 15 16  2  0      
 16 17  1  0      
 17 18  2  0      
 13 18  1  0      
 17 19  1  0      
 16 20  1  0      
 15 21  1  0      
  2 22  1  0      
 22 23  1  0      
 23 24  2  0      
 23 25  1  0      
 25 26  2  0      
 26 27  1  0      
 27 28  2  0      
 28 29  1  0      
 29 30  2  0      
 25 30  1  0      
 29 31  1  0      
 28 32  1  0      
 27 33  1  0      
M  END
>  <Bioactivity>
(-)-Gallocatechin gallate can precipitate cholesterol.            (-)-Gallocatechin gallate decreasees osteoclastogenesis at 20 microM.(-)-Gallocatechin gallate inhibits production and extracellular 
release of maltose binding protein and a periplasmic protein into the culture supernatant.

>  <CAS>
4233-96-9

>  <Col>
3

>  <Formula>
C22H18O11

>  <ID>
T3807

>  <Index>
772

>  <MOLENAME>
(-)-Gallocatechin gallate

>  <MolWt>
458.375

>  <Pathways>
Others

>  <Plate>
PLATE 010

>  <QR code>
1151478045

>  <Receptor>
Others

>  <Reference>
1. Ko CH,et al. Effects of tea catechins, epigallocatechin, gallocatechin, and gallocatechin gallate, on bone metabolism. J Agric Food Chem. 2009 Aug 26;57(16):7293-7. 

>  <Row>
F

>  <SMILES>
C1C(C(OC2=CC(=CC(=C21)O)O)C3=CC(=C(C(=C3)O)O)O)OC(=O)C4=CC(=C(C(=C4)O)O)O

>  <Target>
Others

>  <Weight>
10mg

$$$$
Lab-1.sdf
  ChemDraw05232018482D

 39 42  0  0  0  0  0  0  0  0999 V2000
    1.9275    0.0000    0.0000 C   0  0  0  0  0  0  0  0  0  0  0  0
    1.9275    0.0000    0.0000 C   0  0  0  0  0  0  0  0  0  0  0  0
    1.2130    0.0000    0.0000 C   0  0  0  0  0  0  0  0  0  0  0  0
    0.4985    0.0000    0.0000 C   0  0  0  0  0  0  0  0  0  0  0  0
    0.4985    0.0000    0.0000 C   0  0  0  0  0  0  0  0  0  0  0  0
    1.2130    0.0000    0.0000 C   0  0  0  0  0  0  0  0  0  0  0  0
    1.2130    0.0000    0.0000 C   0  0  0  0  0  0  0  0  0  0  0  0
    1.9275    0.0000    0.0000 C   0  0  0  0  0  0  0  0  0  0  0  0
    2.6419    0.0000    0.0000 C   0  0  0  0  0  0  0  0  0  0  0  0
    3.3564    0.0000    0.0000 O   0  0  0  0  0  0  0  0  0  0  0  0
    2.6419    0.0000    0.0000 O   0  0  0  0  0  0  0  0  0  0  0  0
    1.9275    0.0000    0.0000 O   0  0  0  0  0  0  0  0  0  0  0  0
    2.6419    0.0000    0.0000 C   0  0  0  0  0  0  0  0  0  0  0  0
    3.3564    0.0000    0.0000 O   0  0  0  0  0  0  0  0  0  0  0  0
    2.6419    0.0000    0.0000 C   0  0  0  0  0  0  0  0  0  0  0  0
    1.9275    0.0000    0.0000 C   0  0  0  0  0  0  0  0  0  0  0  0
    1.9275    0.0000    0.0000 C   0  0  0  0  0  0  0  0  0  0  0  0
    1.2130    0.0000    0.0000 C   0  0  0  0  0  0  0  0  0  0  0  0
    0.4285    0.0000    0.0000 C   0  0  0  0  0  0  0  0  0  0  0  0
   -0.0564    0.0000    0.0000 C   0  0  0  0  0  0  0  0  0  0  0  0
    0.4285    0.0000    0.0000 O   0  0  0  0  0  0  0  0  0  0  0  0
    1.2130    0.0000    0.0000 C   0  0  0  0  0  0  0  0  0  0  0  0
    1.9275    0.0000    0.0000 C   0  0  0  0  0  0  0  0  0  0  0  0
    2.6419    0.0000    0.0000 C   0  0  0  0  0  0  0  0  0  0  0  0
    2.6419    0.0000    0.0000 C   0  0  0  0  0  0  0  0  0  0  0  0
    1.9275    0.0000    0.0000 O   0  0  0  0  0  0  0  0  0  0  0  0
   -0.8814    0.0000    0.0000 C   0  0  0  0  0  0  0  0  0  0  0  0
   -1.2939    0.0000    0.0000 C   0  0  0  0  0  0  0  0  0  0  0  0
   -2.1189    0.0000    0.0000 C   0  0  0  0  0  0  0  0  0  0  0  0
   -2.5314    0.0000    0.0000 C   0  0  0  0  0  0  0  0  0  0  0  0
   -2.1189    0.0000    0.0000 C   0  0  0  0  0  0  0  0  0  0  0  0
   -1.2939    0.0000    0.0000 C   0  0  0  0  0  0  0  0  0  0  0  0
   -3.3564    0.0000    0.0000 O   0  0  0  0  0  0  0  0  0  0  0  0
   -2.5314    0.0000    0.0000 O   0  0  0  0  0  0  0  0  0  0  0  0
    0.1734    0.0000    0.0000 C   0  0  0  0  0  0  0  0  0  0  0  0
   -0.6335    0.0000    0.0000 O   0  0  0  0  0  0  0  0  0  0  0  0
    0.7256    0.0000    0.0000 O   0  0  0  0  0  0  0  0  0  0  0  0
   -0.2159    0.0000    0.0000 O   0  0  0  0  0  0  0  0  0  0  0  0
    1.2130    0.0000    0.0000 O   0  0  0  0  0  0  0  0  0  0  0  0
  1  2  2  0      
  2  3  1  0      
  3  4  2  0      
  4  5  1  0      
  5  6  2  0      
  1  6  1  0      
  6  7  1  0      
  7  8  1  0      
  8  9  1  0      
  9 10  2  0      
  9 11  1  0      
  8 12  1  0      
 12 13  1  0      
 13 14  2  0      
 15 13  1  4      
 15 16  2  0      
 16 17  1  0      
 17 18  2  0      
 18 19  1  0      
 19 20  1  0      
 20 21  1  0      
 21 22  1  0      
 18 22  1  0      
 22 23  2  0      
 23 24  1  0      
 24 25  2  0      
 17 25  1  0      
 23 26  1  0      
 20 27  1  0      
 27 28  2  0      
 28 29  1  0      
 29 30  2  0      
 30 31  1  0      
 31 32  2  0      
 27 32  1  0      
 30 33  1  0      
 29 34  1  0      
 19 35  1  0      
 35 36  2  0      
 35 37  1  0      
  4 38  1  0      
  3 39  1  0      
M  END
>  <Bioactivity>
lithospermic acid, a potent anti-HIV agent and Lithospermic acid shows anti-gonadotrophic and anti-thyroidal effects

>  <CAS>
28831-65-4

>  <Col>
4

>  <Formula>
C27H22O12

>  <ID>
T3683

>  <Index>
773

>  <MOLENAME>
lithospermic acid

>  <MolWt>
538.461

>  <Pathways>
Immunology/Inflammation 

>  <Plate>
PLATE 010

>  <QR code>
1151478046

>  <Receptor>
HIV

>  <Reference>
1.Xiuli W, Wei G, Mao S.Pharmacokinetic investigation on interaction between hydrophilic lithospermic acid B and lipophilic tanshinone IIA in rats: an experi- mental study.J Tradit Chin Med. 2015 Apr;
35(2):206-10.

>  <Row>
F

>  <SMILES>
C1=CC(=C(C=C1CC(C(=O)O)OC(=O)C=CC2=C3C(C(OC3=C(C=C2)O)C4=CC(=C(C=C4)O)O)C(=O)O)O)O

>  <Target>
HIV

>  <Weight>
10.1mg

$$$$
Lab-1.sdf
  ChemDraw05232018482D

 44 47  0  0  0  0  0  0  0  0999 V2000
    2.5007    0.0000    0.0000 C   0  0  0  0  0  0  0  0  0  0  0  0
    2.5007    0.0000    0.0000 C   0  0  0  0  0  0  0  0  0  0  0  0
    3.2151    0.0000    0.0000 C   0  0  0  0  0  0  0  0  0  0  0  0
    3.2151    0.0000    0.0000 C   0  0  0  0  0  0  0  0  0  0  0  0
    2.5007    0.0000    0.0000 C   0  0  0  0  0  0  0  0  0  0  0  0
    1.7862    0.0000    0.0000 C   0  0  0  0  0  0  0  0  0  0  0  0
    1.7862    0.0000    0.0000 O   0  0  0  0  0  0  0  0  0  0  0  0
    1.0717    0.0000    0.0000 O   0  0  0  0  0  0  0  0  0  0  0  0
    0.3573    0.0000    0.0000 C   0  0  0  0  0  0  0  0  0  0  0  0
   -0.3572    0.0000    0.0000 C   0  0  0  0  0  0  0  0  0  0  0  0
   -1.0717    0.0000    0.0000 C   0  0  0  0  0  0  0  0  0  0  0  0
   -1.0717    0.0000    0.0000 O   0  0  0  0  0  0  0  0  0  0  0  0
   -0.3572    0.0000    0.0000 C   0  0  0  0  0  0  0  0  0  0  0  0
    0.3573    0.0000    0.0000 C   0  0  0  0  0  0  0  0  0  0  0  0
    1.0717    0.0000    0.0000 O   0  0  0  0  0  0  0  0  0  0  0  0
   -0.3572    0.0000    0.0000 O   0  0  0  0  0  0  0  0  0  0  0  0
    0.3573    0.0000    0.0000 C   0  0  0  0  0  0  0  0  0  0  0  0
    0.3573    0.0000    0.0000 C   0  0  0  0  0  0  0  0  0  0  0  0
    1.0717    0.0000    0.0000 C   0  0  0  0  0  0  0  0  0  0  0  0
    1.0717    0.0000    0.0000 C   0  0  0  0  0  0  0  0  0  0  0  0
    1.7862    0.0000    0.0000 C   0  0  0  0  0  0  0  0  0  0  0  0
    2.5007    0.0000    0.0000 C   0  0  0  0  0  0  0  0  0  0  0  0
    2.5007    0.0000    0.0000 C   0  0  0  0  0  0  0  0  0  0  0  0
    1.7862    0.0000    0.0000 C   0  0  0  0  0  0  0  0  0  0  0  0
    3.2151    0.0000    0.0000 O   0  0  0  0  0  0  0  0  0  0  0  0
    1.7862    0.0000    0.0000 O   0  0  0  0  0  0  0  0  0  0  0  0
   -1.7862    0.0000    0.0000 C   0  0  0  0  0  0  0  0  0  0  0  0
   -2.5006    0.0000    0.0000 O   0  0  0  0  0  0  0  0  0  0  0  0
   -3.2151    0.0000    0.0000 C   0  0  0  0  0  0  0  0  0  0  0  0
   -3.9296    0.0000    0.0000 O   0  0  0  0  0  0  0  0  0  0  0  0
   -3.2151    0.0000    0.0000 C   0  0  0  0  0  0  0  0  0  0  0  0
   -2.5006    0.0000    0.0000 C   0  0  0  0  0  0  0  0  0  0  0  0
   -2.5006    0.0000    0.0000 C   0  0  0  0  0  0  0  0  0  0  0  0
   -1.7862    0.0000    0.0000 C   0  0  0  0  0  0  0  0  0  0  0  0
   -1.7862    0.0000    0.0000 C   0  0  0  0  0  0  0  0  0  0  0  0
   -2.5006    0.0000    0.0000 C   0  0  0  0  0  0  0  0  0  0  0  0
   -3.2151    0.0000    0.0000 C   0  0  0  0  0  0  0  0  0  0  0  0
   -3.2151    0.0000    0.0000 C   0  0  0  0  0  0  0  0  0  0  0  0
   -2.5006    0.0000    0.0000 O   0  0  0  0  0  0  0  0  0  0  0  0
   -1.0717    0.0000    0.0000 O   0  0  0  0  0  0  0  0  0  0  0  0
   -0.3572    0.0000    0.0000 O   0  0  0  0  0  0  0  0  0  0  0  0
    2.5007    0.0000    0.0000 O   0  0  0  0  0  0  0  0  0  0  0  0
    3.9296    0.0000    0.0000 O   0  0  0  0  0  0  0  0  0  0  0  0
    3.9296    0.0000    0.0000 O   0  0  0  0  0  0  0  0  0  0  0  0
  1  2  1  0      
  2  3  1  0      
  3  4  1  0      
  4  5  1  0      
  5  6  1  0      
  6  7  1  0      
  2  7  1  0      
  6  8  1  0      
  8  9  1  0      
  9 10  1  0      
 10 11  1  0      
 11 12  1  0      
 12 13  1  0      
 13 14  1  0      
  9 14  1  0      
 14 15  1  0      
 13 16  1  0      
 16 17  1  0      
 17 18  1  0      
 18 19  1  0      
 19 20  2  0      
 20 21  1  0      
 21 22  2  0      
 22 23  1  0      
 23 24  2  0      
 19 24  1  0      
 22 25  1  0      
 21 26  1  0      
 11 27  1  0      
 27 28  1  0      
 28 29  1  0      
 29 30  2  0      
 31 29  1  4      
 31 32  2  0      
 32 33  1  0      
 33 34  2  0      
 34 35  1  0      
 35 36  2  0      
 36 37  1  0      
 37 38  2  0      
 33 38  1  0      
 36 39  1  0      
 35 40  1  0      
 10 41  1  0      
  5 42  1  0      
  4 43  1  0      
  3 44  1  0      
M  END
>  <Bioactivity>
Isoacteoside possesses antioxidant property.Isoacteoside has anti-inflammatory effect, mediated by action on caspase-1, mitogen-activated protein kinases (c-Jun N-terminal kinase, p38, extracellular 
signal-regulated protein kinase) and nuclear factor-kappa B pathways.

>  <CAS>
61303-13-7

>  <Col>
5

>  <Formula>
C29H36O15

>  <ID>
T3892

>  <Index>
774

>  <MOLENAME>
Isoacteoside

>  <MolWt>
624.592

>  <Pathways>
Immunology/ Inflammation; Jak/STAT

>  <Plate>
PLATE 010

>  <QR code>
1151478047

>  <Receptor>
NF-¦ÊB

>  <Reference>
1. Nam SY,et al. Anti-inflammatory effects of isoacteoside from Abeliophyllum distichum. Immunopharmacol Immunotoxicol. 2015 Jun;37(3):258-64. 

>  <Row>
F

>  <SMILES>
CC1C(C(C(C(O1)OC2C(C(OC(C2O)OCCC3=CC(=C(C=C3)O)O)COC(=O)C=CC4=CC(=C(C=C4)O)O)O)O)O)O

>  <Target>
NF-¦ÊB

>  <Weight>
10.4mg

$$$$
Lab-1.sdf
  ChemDraw05232018482D

 15 15  0  0  0  0  0  0  0  0999 V2000
   -0.7145    0.0000    0.0000 C   0  0  0  0  0  0  0  0  0  0  0  0
    0.0000    0.0000    0.0000 O   0  0  0  0  0  0  0  0  0  0  0  0
    0.0000    0.0000    0.0000 C   0  0  0  0  0  0  0  0  0  0  0  0
    0.7144    0.0000    0.0000 C   0  0  0  0  0  0  0  0  0  0  0  0
    0.7144    0.0000    0.0000 C   0  0  0  0  0  0  0  0  0  0  0  0
    0.0000    0.0000    0.0000 C   0  0  0  0  0  0  0  0  0  0  0  0
   -0.7145    0.0000    0.0000 C   0  0  0  0  0  0  0  0  0  0  0  0
   -0.7145    0.0000    0.0000 C   0  0  0  0  0  0  0  0  0  0  0  0
   -1.4290    0.0000    0.0000 O   0  0  0  0  0  0  0  0  0  0  0  0
   -1.4290    0.0000    0.0000 O   0  0  0  0  0  0  0  0  0  0  0  0
   -2.1433    0.0000    0.0000 C   0  0  0  0  0  0  0  0  0  0  0  0
    1.4289    0.0000    0.0000 C   0  0  0  0  0  0  0  0  0  0  0  0
    2.1433    0.0000    0.0000 O   0  0  0  0  0  0  0  0  0  0  0  0
    1.4289    0.0000    0.0000 O   0  0  0  0  0  0  0  0  0  0  0  0
    2.1433    0.0000    0.0000 C   0  0  0  0  0  0  0  0  0  0  0  0
  1  2  1  0      
  2  3  1  0      
  3  4  2  0      
  4  5  1  0      
  5  6  2  0      
  6  7  1  0      
  7  8  2  0      
  3  8  1  0      
  8  9  1  0      
  7 10  1  0      
 10 11  1  0      
  5 12  1  0      
 12 13  2  0      
 12 14  1  0      
 14 15  1  0      
M  END
>  <Bioactivity>
Methyl syringate has a unique inhibitory activity toward aflatoxin production with a different mode of action from that of gallic acid. Methyl syringate from K. pictus is a specific and selective acti
vator of hTRPA1, can regulate food intake and gastric emptying through a TRPA1-mediated pathway and, by extension, can contribute to weight suppression. 

>  <CAS>
884-35-5

>  <Col>
6

>  <Formula>
C10H12O5

>  <ID>
T3727

>  <Index>
775

>  <MOLENAME>
Methyl syringate

>  <MolWt>
212.2

>  <Pathways>
Membrane Transporter/Ion Channel

>  <Plate>
PLATE 010

>  <QR code>
1151478048

>  <Receptor>
hTRPA1

>  <Reference>
1. Kim MJ, et al. PLoS One. 2013 Aug 21;8(8):e71603.

>  <Row>
F

>  <SMILES>
COC1=CC(=CC(=C1O)OC)C(=O)OC

>  <Target>
TRP/TRPV agonist

>  <Weight>
10.2mg

$$$$
Lab-1.sdf
  ChemDraw05232018482D

 18 20  0  0  0  0  0  0  0  0999 V2000
   -2.1262    0.0000    0.0000 C   0  0  0  0  0  0  0  0  0  0  0  0
   -1.4962    0.0000    0.0000 C   0  0  0  0  0  0  0  0  0  0  0  0
   -0.6949    0.0000    0.0000 C   0  0  0  0  0  0  0  0  0  0  0  0
   -0.3050    0.0000    0.0000 C   0  0  0  0  0  0  0  0  0  0  0  0
    0.5195    0.0000    0.0000 C   0  0  0  0  0  0  0  0  0  0  0  0
    0.9541    0.0000    0.0000 C   0  0  0  0  0  0  0  0  0  0  0  0
    1.7787    0.0000    0.0000 C   0  0  0  0  0  0  0  0  0  0  0  0
    2.2134    0.0000    0.0000 C   0  0  0  0  0  0  0  0  0  0  0  0
    1.8234    0.0000    0.0000 C   0  0  0  0  0  0  0  0  0  0  0  0
    2.2580    0.0000    0.0000 O   0  0  0  0  0  0  0  0  0  0  0  0
    0.9988    0.0000    0.0000 C   0  0  0  0  0  0  0  0  0  0  0  0
    0.5642    0.0000    0.0000 C   0  0  0  0  0  0  0  0  0  0  0  0
   -0.2603    0.0000    0.0000 C   0  0  0  0  0  0  0  0  0  0  0  0
   -0.7930    0.0000    0.0000 O   0  0  0  0  0  0  0  0  0  0  0  0
   -1.5567    0.0000    0.0000 C   0  0  0  0  0  0  0  0  0  0  0  0
   -2.2580    0.0000    0.0000 O   0  0  0  0  0  0  0  0  0  0  0  0
    0.6088    0.0000    0.0000 C   0  0  0  0  0  0  0  0  0  0  0  0
    1.3441    0.0000    0.0000 C   0  0  0  0  0  0  0  0  0  0  0  0
  1  2  1  0      
  2  3  1  0      
  3  4  1  0      
  4  5  1  0      
  5  6  1  0      
  6  7  1  0      
  7  8  2  0      
  8  9  1  0      
  9 10  2  0      
  9 11  1  0      
 11 12  2  0      
  6 12  1  0      
 12 13  1  0      
  3 13  1  0      
 13 14  1  0      
 14 15  1  0      
  2 15  1  0      
 15 16  2  0      
 11 17  1  0      
  6 18  1  0      
M  END
>  <Bioactivity>
Potent antiparasitic agent. Sesquiterpene lactone. Shows anti-inflammatory, antipyretic and analgesic effects in vivo. Orally active.

>  <CAS>
481-06-1

>  <Col>
7

>  <Formula>
C15H18O3

>  <ID>
T3718

>  <Index>
776

>  <MOLENAME>
¦Á-santonin

>  <MolWt>
246.302

>  <Pathways>
Others

>  <Plate>
PLATE 010

>  <QR code>
1151478049

>  <Receptor>
Others

>  <Reference>
1. Bao C, et al.Biosci Biotechnol Biochem. 2015;79(6):1011-7.

>  <Row>
F

>  <SMILES>
CC1C2CCC3(C=CC(=O)C(=C3C2OC1=O)C)C

>  <Target>
Others

>  <Weight>
10.2mg

$$$$
Lab-1.sdf
  ChemDraw05232018482D

 16 16  0  0  0  0  0  0  0  0999 V2000
   -1.0717    0.0000    0.0000 C   0  0  0  0  0  0  0  0  0  0  0  0
   -0.3572    0.0000    0.0000 O   0  0  0  0  0  0  0  0  0  0  0  0
   -0.3572    0.0000    0.0000 C   0  0  0  0  0  0  0  0  0  0  0  0
    0.3571    0.0000    0.0000 C   0  0  0  0  0  0  0  0  0  0  0  0
    0.3571    0.0000    0.0000 C   0  0  0  0  0  0  0  0  0  0  0  0
   -0.3572    0.0000    0.0000 C   0  0  0  0  0  0  0  0  0  0  0  0
   -1.0717    0.0000    0.0000 C   0  0  0  0  0  0  0  0  0  0  0  0
   -1.0717    0.0000    0.0000 C   0  0  0  0  0  0  0  0  0  0  0  0
   -1.7862    0.0000    0.0000 O   0  0  0  0  0  0  0  0  0  0  0  0
   -1.7862    0.0000    0.0000 O   0  0  0  0  0  0  0  0  0  0  0  0
   -2.5006    0.0000    0.0000 C   0  0  0  0  0  0  0  0  0  0  0  0
    1.0716    0.0000    0.0000 C   0  0  0  0  0  0  0  0  0  0  0  0
    1.0716    0.0000    0.0000 C   0  0  0  0  0  0  0  0  0  0  0  0
    1.7861    0.0000    0.0000 C   0  0  0  0  0  0  0  0  0  0  0  0
    2.5006    0.0000    0.0000 O   0  0  0  0  0  0  0  0  0  0  0  0
    1.7861    0.0000    0.0000 O   0  0  0  0  0  0  0  0  0  0  0  0
  1  2  1  0      
  2  3  1  0      
  3  4  2  0      
  4  5  1  0      
  5  6  2  0      
  6  7  1  0      
  7  8  2  0      
  3  8  1  0      
  8  9  1  0      
  7 10  1  0      
 10 11  1  0      
 12  5  1  4      
 12 13  2  0      
 13 14  1  0      
 14 15  2  0      
 14 16  1  0      
M  END
>  <Bioactivity>
Sinapic acid shows antibacterial activity.Sinapic acid with antioxidant role protects cardiac cells and its functions from I/R induced oxidative stress.Sinapic acid is a potentially useful agent for
 the protection against liver fibrosis and cirrhosis.Sinapic acid ameliorates hyperglycemia through PLC-PKC signals to enhance the glucose utilization in diabetic rats. Sinapic acid prevents the alte
rations in the levels of lipids and lipoproteins by virtue of its anti-lipidaemic effect in isoproterenol induced myocardial infarcted rats.Sinapic acid protects the rat liver from CCl4-induced infla
mmation, most likely by acting as a free radical scavenger and modulator of NF-¦ÊB p65 activation and proinflammatory cytokine expression. 

>  <CAS>
530-59-6

>  <Col>
8

>  <Formula>
C11H12O5

>  <ID>
T3753

>  <Index>
777

>  <MOLENAME>
Sinapinic Acid

>  <MolWt>
224.2

>  <Pathways>
Immunology/Inflammation

>  <Plate>
PLATE 010

>  <QR code>
1151478050

>  <Receptor>
Others

>  <Reference>
1.Cherng YG,et al.Antihyperglycemic action of sinapic acid in diabetic rats.  2013 Dec 11;61(49):12053-9.

>  <Row>
F

>  <SMILES>
COC1=CC(=CC(=C1O)OC)C=CC(=O)O

>  <Target>
Antibiotics

>  <Weight>
10.3mg

$$$$
Lab-1.sdf
  ChemDraw05232018482D

 32 36  0  0  0  0  0  0  0  0999 V2000
   -1.5890    0.0000    0.0000 C   0  0  0  0  0  0  0  0  0  0  0  0
   -2.3774    0.0000    0.0000 C   0  0  0  0  0  0  0  0  0  0  0  0
   -2.9820    0.0000    0.0000 C   0  0  0  0  0  0  0  0  0  0  0  0
   -2.5611    0.0000    0.0000 C   0  0  0  0  0  0  0  0  0  0  0  0
   -3.3198    0.0000    0.0000 C   0  0  0  0  0  0  0  0  0  0  0  0
   -3.2461    0.0000    0.0000 C   0  0  0  0  0  0  0  0  0  0  0  0
   -2.4418    0.0000    0.0000 C   0  0  0  0  0  0  0  0  0  0  0  0
   -2.0185    0.0000    0.0000 C   0  0  0  0  0  0  0  0  0  0  0  0
   -1.1936    0.0000    0.0000 C   0  0  0  0  0  0  0  0  0  0  0  0
   -0.7703    0.0000    0.0000 C   0  0  0  0  0  0  0  0  0  0  0  0
    0.0546    0.0000    0.0000 C   0  0  0  0  0  0  0  0  0  0  0  0
    0.4563    0.0000    0.0000 C   0  0  0  0  0  0  0  0  0  0  0  0
    1.2812    0.0000    0.0000 C   0  0  0  0  0  0  0  0  0  0  0  0
    1.7045    0.0000    0.0000 C   0  0  0  0  0  0  0  0  0  0  0  0
    2.5294    0.0000    0.0000 C   0  0  0  0  0  0  0  0  0  0  0  0
    2.9310    0.0000    0.0000 C   0  0  0  0  0  0  0  0  0  0  0  0
    2.5077    0.0000    0.0000 C   0  0  0  0  0  0  0  0  0  0  0  0
    1.6828    0.0000    0.0000 C   0  0  0  0  0  0  0  0  0  0  0  0
    1.2595    0.0000    0.0000 C   0  0  0  0  0  0  0  0  0  0  0  0
    0.4346    0.0000    0.0000 C   0  0  0  0  0  0  0  0  0  0  0  0
    0.0329    0.0000    0.0000 C   0  0  0  0  0  0  0  0  0  0  0  0
   -0.7920    0.0000    0.0000 C   0  0  0  0  0  0  0  0  0  0  0  0
   -1.2153    0.0000    0.0000 C   0  0  0  0  0  0  0  0  0  0  0  0
   -2.0402    0.0000    0.0000 C   0  0  0  0  0  0  0  0  0  0  0  0
   -0.3904    0.0000    0.0000 C   0  0  0  0  0  0  0  0  0  0  0  0
    0.1066    0.0000    0.0000 C   0  0  0  0  0  0  0  0  0  0  0  0
    3.2006    0.0000    0.0000 C   0  0  0  0  0  0  0  0  0  0  0  0
    2.5240    0.0000    0.0000 C   0  0  0  0  0  0  0  0  0  0  0  0
    3.7559    0.0000    0.0000 O   0  0  0  0  0  0  0  0  0  0  0  0
    0.8796    0.0000    0.0000 C   0  0  0  0  0  0  0  0  0  0  0  0
   -2.9368    0.0000    0.0000 C   0  0  0  0  0  0  0  0  0  0  0  0
   -3.7559    0.0000    0.0000 O   0  0  0  0  0  0  0  0  0  0  0  0
  1  2  1  0      
  2  3  2  0      
  2  4  1  0      
  4  5  1  0      
  5  6  1  0      
  6  7  1  0      
  7  8  1  0      
  4  8  1  0      
  8  9  1  0      
  9 10  1  0      
 10 11  1  0      
 11 12  1  0      
 12 13  1  0      
 13 14  1  0      
 14 15  1  0      
 15 16  1  0      
 16 17  1  0      
 17 18  1  0      
 13 18  1  0      
 18 19  1  0      
 19 20  1  0      
 20 21  1  0      
 12 21  1  0      
 21 22  1  0      
  9 22  1  0      
 22 23  1  0      
 23 24  1  0      
  7 24  1  0      
 22 25  1  0      
 21 26  1  0      
 17 27  1  0      
 17 28  1  0      
 16 29  1  0      
 13 30  1  0      
  7 31  1  0      
 31 32  2  0      
M  END
>  <Bioactivity>
Isosilybin and Silybin might be suitable candidates to design potent PXR antagonists to prevent drug-drug interactions via CYP3A4 in cancer patients.

>  <CAS>
72581-71-6

>  <Col>
9

>  <Formula>
C25H22O10

>  <ID>
T3797

>  <Index>
778

>  <MOLENAME>
Isosilybin

>  <MolWt>
482.44

>  <Pathways>
Metabolism

>  <Plate>
PLATE 010

>  <QR code>
1151478051

>  <Receptor>
 PXR 

>  <Reference>
1. Chung PY,et al. Identification, by gene expression profiling analysis, of novel gene targets in Staphylococcus aureus treated with betulinaldehyde. Res Microbiol. 2013 May;164(4):319-26.

>  <Row>
F

>  <SMILES>
CC(=C)C1CCC2(C1C3CCC4C5(CCC(C(C5CCC4(C3(CC2)C)C)(C)C)O)C)C=O

>  <Target>
 PXR antagonists

>  <Weight>
10.2mg

$$$$
Lab-1.sdf
  ChemDraw05232018482D

 63 70  0  0  0  0  0  0  0  0999 V2000
    6.3311    0.0000    0.0000 C   0  0  0  0  0  0  0  0  0  0  0  0
    5.5061    0.0000    0.0000 C   0  0  0  0  0  0  0  0  0  0  0  0
    5.0936    0.0000    0.0000 C   0  0  0  0  0  0  0  0  0  0  0  0
    4.2686    0.0000    0.0000 C   0  0  0  0  0  0  0  0  0  0  0  0
    3.8561    0.0000    0.0000 C   0  0  0  0  0  0  0  0  0  0  0  0
    4.2686    0.0000    0.0000 C   0  0  0  0  0  0  0  0  0  0  0  0
    5.0936    0.0000    0.0000 O   0  0  0  0  0  0  0  0  0  0  0  0
    3.8561    0.0000    0.0000 O   0  0  0  0  0  0  0  0  0  0  0  0
    4.2686    0.0000    0.0000 C   0  0  0  0  0  0  0  0  0  0  0  0
    5.0936    0.0000    0.0000 C   0  0  0  0  0  0  0  0  0  0  0  0
    5.5061    0.0000    0.0000 C   0  0  0  0  0  0  0  0  0  0  0  0
    5.0936    0.0000    0.0000 C   0  0  0  0  0  0  0  0  0  0  0  0
    4.2686    0.0000    0.0000 O   0  0  0  0  0  0  0  0  0  0  0  0
    3.8561    0.0000    0.0000 C   0  0  0  0  0  0  0  0  0  0  0  0
    3.0311    0.0000    0.0000 O   0  0  0  0  0  0  0  0  0  0  0  0
    2.6186    0.0000    0.0000 C   0  0  0  0  0  0  0  0  0  0  0  0
    3.0311    0.0000    0.0000 C   0  0  0  0  0  0  0  0  0  0  0  0
    2.6186    0.0000    0.0000 C   0  0  0  0  0  0  0  0  0  0  0  0
    1.7936    0.0000    0.0000 C   0  0  0  0  0  0  0  0  0  0  0  0
    1.3811    0.0000    0.0000 O   0  0  0  0  0  0  0  0  0  0  0  0
    1.7936    0.0000    0.0000 C   0  0  0  0  0  0  0  0  0  0  0  0
    1.3811    0.0000    0.0000 O   0  0  0  0  0  0  0  0  0  0  0  0
    0.5561    0.0000    0.0000 C   0  0  0  0  0  0  0  0  0  0  0  0
    0.1436    0.0000    0.0000 C   0  0  0  0  0  0  0  0  0  0  0  0
   -0.6814    0.0000    0.0000 C   0  0  0  0  0  0  0  0  0  0  0  0
   -1.0939    0.0000    0.0000 C   0  0  0  0  0  0  0  0  0  0  0  0
   -0.6814    0.0000    0.0000 C   0  0  0  0  0  0  0  0  0  0  0  0
    0.1436    0.0000    0.0000 C   0  0  0  0  0  0  0  0  0  0  0  0
    0.1724    0.0000    0.0000 C   0  0  0  0  0  0  0  0  0  0  0  0
    0.8432    0.0000    0.0000 C   0  0  0  0  0  0  0  0  0  0  0  0
   -1.0939    0.0000    0.0000 C   0  0  0  0  0  0  0  0  0  0  0  0
   -1.9189    0.0000    0.0000 C   0  0  0  0  0  0  0  0  0  0  0  0
   -2.3314    0.0000    0.0000 C   0  0  0  0  0  0  0  0  0  0  0  0
   -1.9189    0.0000    0.0000 C   0  0  0  0  0  0  0  0  0  0  0  0
   -2.3314    0.0000    0.0000 C   0  0  0  0  0  0  0  0  0  0  0  0
   -3.1564    0.0000    0.0000 C   0  0  0  0  0  0  0  0  0  0  0  0
   -3.5689    0.0000    0.0000 C   0  0  0  0  0  0  0  0  0  0  0  0
   -3.1564    0.0000    0.0000 C   0  0  0  0  0  0  0  0  0  0  0  0
   -3.5689    0.0000    0.0000 C   0  0  0  0  0  0  0  0  0  0  0  0
   -4.3939    0.0000    0.0000 C   0  0  0  0  0  0  0  0  0  0  0  0
   -4.8064    0.0000    0.0000 C   0  0  0  0  0  0  0  0  0  0  0  0
   -4.3939    0.0000    0.0000 C   0  0  0  0  0  0  0  0  0  0  0  0
   -4.8064    0.0000    0.0000 C   0  0  0  0  0  0  0  0  0  0  0  0
   -5.6314    0.0000    0.0000 C   0  0  0  0  0  0  0  0  0  0  0  0
   -6.0439    0.0000    0.0000 C   0  0  0  0  0  0  0  0  0  0  0  0
   -5.6314    0.0000    0.0000 C   0  0  0  0  0  0  0  0  0  0  0  0
   -5.6602    0.0000    0.0000 C   0  0  0  0  0  0  0  0  0  0  0  0
   -6.3311    0.0000    0.0000 C   0  0  0  0  0  0  0  0  0  0  0  0
   -5.2189    0.0000    0.0000 C   0  0  0  0  0  0  0  0  0  0  0  0
   -6.0439    0.0000    0.0000 O   0  0  0  0  0  0  0  0  0  0  0  0
   -4.8064    0.0000    0.0000 O   0  0  0  0  0  0  0  0  0  0  0  0
   -2.7439    0.0000    0.0000 C   0  0  0  0  0  0  0  0  0  0  0  0
   -2.2452    0.0000    0.0000 C   0  0  0  0  0  0  0  0  0  0  0  0
   -1.5064    0.0000    0.0000 C   0  0  0  0  0  0  0  0  0  0  0  0
    3.0311    0.0000    0.0000 O   0  0  0  0  0  0  0  0  0  0  0  0
    3.8561    0.0000    0.0000 O   0  0  0  0  0  0  0  0  0  0  0  0
    5.5061    0.0000    0.0000 C   0  0  0  0  0  0  0  0  0  0  0  0
    5.0936    0.0000    0.0000 O   0  0  0  0  0  0  0  0  0  0  0  0
    6.3311    0.0000    0.0000 O   0  0  0  0  0  0  0  0  0  0  0  0
    5.5061    0.0000    0.0000 O   0  0  0  0  0  0  0  0  0  0  0  0
    3.0311    0.0000    0.0000 O   0  0  0  0  0  0  0  0  0  0  0  0
    3.8561    0.0000    0.0000 O   0  0  0  0  0  0  0  0  0  0  0  0
    5.5061    0.0000    0.0000 O   0  0  0  0  0  0  0  0  0  0  0  0
  1  2  1  0      
  2  3  1  0      
  3  4  1  0      
  4  5  1  0      
  5  6  1  0      
  6  7  1  0      
  2  7  1  0      
  6  8  1  0      
  8  9  1  0      
  9 10  1  0      
 10 11  1  0      
 11 12  1  0      
 12 13  1  0      
 13 14  1  0      
  9 14  1  0      
 14 15  1  0      
 15 16  1  0      
 16 17  1  0      
 17 18  1  0      
 18 19  1  0      
 19 20  1  0      
 20 21  1  0      
 16 21  1  0      
 21 22  1  0      
 22 23  1  0      
 23 24  1  0      
 24 25  1  0      
 25 26  1  0      
 26 27  1  0      
 27 28  1  0      
 23 28  1  0      
 28 29  1  0      
 28 30  1  0      
 27 31  1  0      
 31 32  1  0      
 32 33  1  0      
 33 34  1  0      
 26 34  1  0      
 34 35  1  0      
 35 36  1  0      
 36 37  2  0      
 37 38  1  0      
 33 38  1  0      
 38 39  1  0      
 39 40  1  0      
 40 41  1  0      
 41 42  1  0      
 37 42  1  0      
 42 43  1  0      
 43 44  1  0      
 44 45  1  0      
 45 46  1  0      
 41 46  1  0      
 44 47  1  0      
 44 48  1  0      
 41 49  1  0      
 49 50  2  0      
 49 51  1  0      
 38 52  1  0      
 33 53  1  0      
 26 54  1  0      
 18 55  1  0      
 17 56  1  0      
 12 57  1  0      
 57 58  1  0      
 11 59  1  0      
 10 60  1  0      
  5 61  1  0      
  4 62  1  0      
  3 63  1  0      
M  END
>  <Bioactivity>
Raddeanin A has high antiangiogenic potency, antitumor activity.Raddeanin A has moderate inhibitory activity against histone deacetylases (HDACs).

>  <CAS>
89412-79-3

>  <Col>
10

>  <Formula>
C47H76O16

>  <ID>
T3878

>  <Index>
779

>  <MOLENAME>
Raddeanin(Anemodeanin) A

>  <MolWt>
897.109

>  <Pathways>
Chromatin/Epigenetic; Metabolism

>  <Plate>
PLATE 010

>  <QR code>
1151478052

>  <Receptor>
HDAC

>  <Reference>
1. Guan YY,et al. Raddeanin A, a triterpenoid saponin isolated from Anemone raddeana, suppresses the angiogenesis and growth of human colorectal tumor by inhibiting VEGFR2 signaling. Phytomedicine. 20
15 Jan 15;22(1):103-10. 

>  <Row>
F

>  <SMILES>
CC1C(C(C(C(O1)OC2C(C(C(OC2OC3C(C(COC3OC4CCC5(C(C4(C)C)CCC6(C5CC=C7C6(CCC8(C7CC(CC8)(C)C)C(=O)O)C)C)C)O)O)CO)O)O)O)O)O

>  <Target>
histone deacetylases (HDACs)

>  <Weight>
10.1mg

$$$$
Lab-1.sdf
  ChemDraw05232018482D

 14 15  0  0  0  0  0  0  0  0999 V2000
   -2.1433    0.0000    0.0000 C   0  0  0  0  0  0  0  0  0  0  0  0
   -2.1433    0.0000    0.0000 O   0  0  0  0  0  0  0  0  0  0  0  0
   -1.4289    0.0000    0.0000 C   0  0  0  0  0  0  0  0  0  0  0  0
   -1.4289    0.0000    0.0000 C   0  0  0  0  0  0  0  0  0  0  0  0
   -0.7145    0.0000    0.0000 C   0  0  0  0  0  0  0  0  0  0  0  0
   -0.0000    0.0000    0.0000 C   0  0  0  0  0  0  0  0  0  0  0  0
    0.7145    0.0000    0.0000 C   0  0  0  0  0  0  0  0  0  0  0  0
    1.4290    0.0000    0.0000 C   0  0  0  0  0  0  0  0  0  0  0  0
    1.4290    0.0000    0.0000 C   0  0  0  0  0  0  0  0  0  0  0  0
    2.1433    0.0000    0.0000 O   0  0  0  0  0  0  0  0  0  0  0  0
    0.7145    0.0000    0.0000 O   0  0  0  0  0  0  0  0  0  0  0  0
   -0.0000    0.0000    0.0000 C   0  0  0  0  0  0  0  0  0  0  0  0
   -0.7145    0.0000    0.0000 C   0  0  0  0  0  0  0  0  0  0  0  0
   -2.1433    0.0000    0.0000 O   0  0  0  0  0  0  0  0  0  0  0  0
  1  2  1  0      
  2  3  1  0      
  3  4  2  0      
  4  5  1  0      
  5  6  2  0      
  6  7  1  0      
  7  8  2  0      
  8  9  1  0      
  9 10  2  0      
  9 11  1  0      
 11 12  1  0      
  6 12  1  0      
 12 13  2  0      
  3 13  1  0      
  4 14  1  0      
M  END
>  <Bioactivity>
Activity-guided isolation of scopoletin and isoscopoletin, the inhibitory active principles towards CCRF-CEM leukaemia cells and multi-drug resistant CEM/ADR5000 cells, from Artemisia argyi.

>  <CAS>
776-86-3

>  <Col>
11

>  <Formula>
C10H8O4

>  <ID>
T3815

>  <Index>
780

>  <MOLENAME>
6-HYDROXY-7-METHOXYCOUMARIN

>  <MolWt>
192.17

>  <Pathways>
Others

>  <Plate>
PLATE 010

>  <QR code>
1151478053

>  <Receptor>
Others

>  <Reference>
1. Adams M,et al. Activity-guided isolation of scopoletin and isoscopoletin, the inhibitory active principles towards CCRF-CEM leukaemia cells and multi-drug resistant CEM/ADR5000 cells, from Artemisi
a argyi.Adams M1, Efferth T, Bauer R. Planta Med. 2006 Jul;72(9):862-4.

>  <Row>
F

>  <SMILES>
COC1=C(C=C2C=CC(=O)OC2=C1)O

>  <Target>
Others

>  <Weight>
10.3mg

$$$$
Lab-1.sdf
  ChemDraw05232018482D

 37 41  0  0  0  0  0  0  0  0999 V2000
    2.9753    0.0000    0.0000 C   0  0  0  0  0  0  0  0  0  0  0  0
    3.1186    0.0000    0.0000 C   0  0  0  0  0  0  0  0  0  0  0  0
    3.5311    0.0000    0.0000 C   0  0  0  0  0  0  0  0  0  0  0  0
    3.1186    0.0000    0.0000 C   0  0  0  0  0  0  0  0  0  0  0  0
    2.2936    0.0000    0.0000 C   0  0  0  0  0  0  0  0  0  0  0  0
    1.8811    0.0000    0.0000 C   0  0  0  0  0  0  0  0  0  0  0  0
    1.0561    0.0000    0.0000 C   0  0  0  0  0  0  0  0  0  0  0  0
    0.6436    0.0000    0.0000 C   0  0  0  0  0  0  0  0  0  0  0  0
    1.0561    0.0000    0.0000 C   0  0  0  0  0  0  0  0  0  0  0  0
    1.8811    0.0000    0.0000 C   0  0  0  0  0  0  0  0  0  0  0  0
    2.2936    0.0000    0.0000 C   0  0  0  0  0  0  0  0  0  0  0  0
    0.6436    0.0000    0.0000 C   0  0  0  0  0  0  0  0  0  0  0  0
   -0.1813    0.0000    0.0000 C   0  0  0  0  0  0  0  0  0  0  0  0
   -0.5938    0.0000    0.0000 C   0  0  0  0  0  0  0  0  0  0  0  0
   -0.1813    0.0000    0.0000 C   0  0  0  0  0  0  0  0  0  0  0  0
   -0.5938    0.0000    0.0000 C   0  0  0  0  0  0  0  0  0  0  0  0
   -1.4188    0.0000    0.0000 C   0  0  0  0  0  0  0  0  0  0  0  0
   -1.8313    0.0000    0.0000 C   0  0  0  0  0  0  0  0  0  0  0  0
   -1.4188    0.0000    0.0000 C   0  0  0  0  0  0  0  0  0  0  0  0
   -1.8313    0.0000    0.0000 C   0  0  0  0  0  0  0  0  0  0  0  0
   -2.6563    0.0000    0.0000 C   0  0  0  0  0  0  0  0  0  0  0  0
   -3.0688    0.0000    0.0000 C   0  0  0  0  0  0  0  0  0  0  0  0
   -2.6563    0.0000    0.0000 C   0  0  0  0  0  0  0  0  0  0  0  0
   -3.3560    0.0000    0.0000 C   0  0  0  0  0  0  0  0  0  0  0  0
   -2.6851    0.0000    0.0000 C   0  0  0  0  0  0  0  0  0  0  0  0
   -3.4136    0.0000    0.0000 O   0  0  0  0  0  0  0  0  0  0  0  0
   -1.9855    0.0000    0.0000 O   0  0  0  0  0  0  0  0  0  0  0  0
   -3.8938    0.0000    0.0000 O   0  0  0  0  0  0  0  0  0  0  0  0
   -3.0688    0.0000    0.0000 O   0  0  0  0  0  0  0  0  0  0  0  0
   -1.0063    0.0000    0.0000 C   0  0  0  0  0  0  0  0  0  0  0  0
    0.2311    0.0000    0.0000 C   0  0  0  0  0  0  0  0  0  0  0  0
    1.0561    0.0000    0.0000 C   0  0  0  0  0  0  0  0  0  0  0  0
    0.6436    0.0000    0.0000 Cl  0  0  0  0  0  0  0  0  0  0  0  0
    2.7061    0.0000    0.0000 C   0  0  0  0  0  0  0  0  0  0  0  0
    2.2936    0.0000    0.0000 O   0  0  0  0  0  0  0  0  0  0  0  0
    3.5311    0.0000    0.0000 O   0  0  0  0  0  0  0  0  0  0  0  0
    3.8938    0.0000    0.0000 C   0  0  0  0  0  0  0  0  0  0  0  0
  1  2  1  0      
  2  3  1  0      
  3  4  1  0      
  4  5  1  0      
  5  6  1  0      
  6  7  1  0      
  7  8  1  0      
  8  9  2  0      
  9 10  1  0      
  5 10  1  0      
 10 11  1  0      
  2 11  1  0      
  9 12  1  0      
 12 13  1  0      
 13 14  1  0      
 14 15  1  0      
  8 15  1  0      
 15 16  1  0      
 16 17  1  0      
 17 18  1  0      
 18 19  1  0      
 14 19  1  0      
 19 20  1  0      
 20 21  1  0      
 21 22  1  0      
 22 23  1  0      
 18 23  1  0      
 23 24  1  0      
 23 25  1  0      
 25 26  2  0      
 25 27  1  0      
 22 28  1  0      
 21 29  1  0      
 19 30  1  0      
 15 31  1  0      
 12 32  1  0      
 32 33  1  0      
  5 34  1  0      
 34 35  2  0      
 34 36  1  0      
  2 37  1  0      
M  END
>  <Bioactivity>
Tenuigenin displays antiapoptotic and antioxidative activity in hippocampal neurons due to scavenging of intracellular reactive oxygen species, regulating Bcl-2 family and suppressing caspase-3 activi
ty.

>  <CAS>
2469-34-3

>  <Col>
2

>  <Formula>
C30H45ClO6 

>  <ID>
T3907

>  <Index>
781

>  <MOLENAME>
Senegenin

>  <MolWt>
537.1

>  <Pathways>
Apoptosis

>  <Plate>
PLATE 010

>  <QR code>
1151478041

>  <Receptor>
caspase-3

>  <Reference>
1.Li X, Zhao Y, Liu P,et al.Senegenin Inhibits Hypoxia/Reoxygenation-Induced Neuronal Apoptosis by Upregulating RhoGDI¦Á.Mol Neurobiol. 2015 Dec;52(3):1561-71.

>  <Row>
G

>  <SMILES>
CC1(CCC2(CCC3=C(C2C1)C(CC4C3(CCC5C4(CC(C(C5(C)C(=O)O)O)O)C)C)CCl)C(=O)O)C

>  <Target>
Caspase inhibitor

>  <Weight>
10.1mg

$$$$
Lab-1.sdf
  ChemDraw05232018482D

 35 39  0  0  0  0  0  0  0  0999 V2000
   -3.9295    0.0000    0.0000 C   0  0  0  0  0  0  0  0  0  0  0  0
   -3.2151    0.0000    0.0000 O   0  0  0  0  0  0  0  0  0  0  0  0
   -3.2151    0.0000    0.0000 C   0  0  0  0  0  0  0  0  0  0  0  0
   -3.9295    0.0000    0.0000 C   0  0  0  0  0  0  0  0  0  0  0  0
   -3.9295    0.0000    0.0000 C   0  0  0  0  0  0  0  0  0  0  0  0
   -3.2151    0.0000    0.0000 C   0  0  0  0  0  0  0  0  0  0  0  0
   -2.5006    0.0000    0.0000 C   0  0  0  0  0  0  0  0  0  0  0  0
   -2.5006    0.0000    0.0000 C   0  0  0  0  0  0  0  0  0  0  0  0
   -1.7861    0.0000    0.0000 C   0  0  0  0  0  0  0  0  0  0  0  0
   -1.0716    0.0000    0.0000 C   0  0  0  0  0  0  0  0  0  0  0  0
   -0.3573    0.0000    0.0000 O   0  0  0  0  0  0  0  0  0  0  0  0
   -0.3573    0.0000    0.0000 C   0  0  0  0  0  0  0  0  0  0  0  0
   -1.0716    0.0000    0.0000 C   0  0  0  0  0  0  0  0  0  0  0  0
   -1.7861    0.0000    0.0000 O   0  0  0  0  0  0  0  0  0  0  0  0
   -1.0716    0.0000    0.0000 C   0  0  0  0  0  0  0  0  0  0  0  0
   -0.3573    0.0000    0.0000 C   0  0  0  0  0  0  0  0  0  0  0  0
    0.3573    0.0000    0.0000 C   0  0  0  0  0  0  0  0  0  0  0  0
    0.3573    0.0000    0.0000 C   0  0  0  0  0  0  0  0  0  0  0  0
    1.0717    0.0000    0.0000 C   0  0  0  0  0  0  0  0  0  0  0  0
    1.0717    0.0000    0.0000 C   0  0  0  0  0  0  0  0  0  0  0  0
    1.7861    0.0000    0.0000 C   0  0  0  0  0  0  0  0  0  0  0  0
    1.7861    0.0000    0.0000 O   0  0  0  0  0  0  0  0  0  0  0  0
    2.5006    0.0000    0.0000 C   0  0  0  0  0  0  0  0  0  0  0  0
    3.2151    0.0000    0.0000 C   0  0  0  0  0  0  0  0  0  0  0  0
    3.9296    0.0000    0.0000 C   0  0  0  0  0  0  0  0  0  0  0  0
    3.9296    0.0000    0.0000 C   0  0  0  0  0  0  0  0  0  0  0  0
    3.2151    0.0000    0.0000 C   0  0  0  0  0  0  0  0  0  0  0  0
    2.5006    0.0000    0.0000 C   0  0  0  0  0  0  0  0  0  0  0  0
    1.7861    0.0000    0.0000 O   0  0  0  0  0  0  0  0  0  0  0  0
    4.6440    0.0000    0.0000 O   0  0  0  0  0  0  0  0  0  0  0  0
    3.2151    0.0000    0.0000 O   0  0  0  0  0  0  0  0  0  0  0  0
    0.3573    0.0000    0.0000 O   0  0  0  0  0  0  0  0  0  0  0  0
   -1.0716    0.0000    0.0000 C   0  0  0  0  0  0  0  0  0  0  0  0
   -0.3573    0.0000    0.0000 O   0  0  0  0  0  0  0  0  0  0  0  0
   -4.6440    0.0000    0.0000 O   0  0  0  0  0  0  0  0  0  0  0  0
  1  2  1  0      
  2  3  1  0      
  3  4  2  0      
  4  5  1  0      
  5  6  2  0      
  6  7  1  0      
  7  8  2  0      
  3  8  1  0      
  7  9  1  0      
  9 10  1  0      
 10 11  1  0      
 11 12  1  0      
 12 13  2  0      
 13 14  1  0      
  9 14  1  0      
 13 15  1  0      
 15 16  2  0      
 16 17  1  0      
 17 18  2  0      
 12 18  1  0      
 17 19  1  0      
 19 20  1  0      
 20 21  1  0      
 21 22  2  0      
 21 23  1  0      
 23 24  2  0      
 24 25  1  0      
 25 26  2  0      
 26 27  1  0      
 27 28  2  0      
 23 28  1  0      
 28 29  1  0      
 19 29  1  0      
 26 30  1  0      
 24 31  1  0      
 20 32  1  0      
 10 33  1  0      
 33 34  1  0      
  4 35  1  0      
M  END
>  <Bioactivity>
Typhaneoside is a flavonoid glycoside plant extract with potential ability to treat primary dysmenorrhea through the Shaofu Zhuyu decoction.

>  <CAS>
104472-68-6

>  <Col>
3

>  <Formula>
C34H42O20

>  <ID>
T3800

>  <Index>
782

>  <MOLENAME>
Typhaneoside

>  <MolWt>
770.69

>  <Pathways>
Others

>  <Plate>
PLATE 010

>  <QR code>
1151478040

>  <Receptor>
Others

>  <Reference>
1. Mooiman KD, et al.Milk thistle's active components silybin and isosilybin: novel inhibitors of PXR-mediated CYP3A4 induction. 

>  <Row>
G

>  <SMILES>
COC1=C(C=CC(=C1)C2C(OC3=C(O2)C=CC(=C3)C4C(C(=O)C5=C(C=C(C=C5O4)O)O)O)CO)O

>  <Target>
Others

>  <Weight>
10.2mg

$$$$
Lab-1.sdf
  ChemDraw05232018482D

 13 13  0  0  0  0  0  0  0  0999 V2000
   -0.7145    0.0000    0.0000 C   0  0  0  0  0  0  0  0  0  0  0  0
   -0.7145    0.0000    0.0000 O   0  0  0  0  0  0  0  0  0  0  0  0
    0.0000    0.0000    0.0000 C   0  0  0  0  0  0  0  0  0  0  0  0
    0.7145    0.0000    0.0000 O   0  0  0  0  0  0  0  0  0  0  0  0
    0.0000    0.0000    0.0000 C   0  0  0  0  0  0  0  0  0  0  0  0
    0.7145    0.0000    0.0000 C   0  0  0  0  0  0  0  0  0  0  0  0
    0.7145    0.0000    0.0000 C   0  0  0  0  0  0  0  0  0  0  0  0
    0.0000    0.0000    0.0000 C   0  0  0  0  0  0  0  0  0  0  0  0
   -0.7145    0.0000    0.0000 C   0  0  0  0  0  0  0  0  0  0  0  0
   -0.7145    0.0000    0.0000 C   0  0  0  0  0  0  0  0  0  0  0  0
   -1.4289    0.0000    0.0000 O   0  0  0  0  0  0  0  0  0  0  0  0
    0.0000    0.0000    0.0000 O   0  0  0  0  0  0  0  0  0  0  0  0
    1.4289    0.0000    0.0000 O   0  0  0  0  0  0  0  0  0  0  0  0
  1  2  1  0      
  2  3  1  0      
  3  4  2  0      
  3  5  1  0      
  5  6  2  0      
  6  7  1  0      
  7  8  2  0      
  8  9  1  0      
  9 10  2  0      
  5 10  1  0      
  9 11  1  0      
  8 12  1  0      
  7 13  1  0      
M  END
>  <Bioactivity>
Methyl gallate is a  reverse transcriptase inhibitor  with  antioxidant, anti-HIV-1 and HIV-1 enzyme inhibitory activities

>  <CAS>
99-24-1

>  <Col>
4

>  <Formula>
C8H8O5

>  <ID>
T3730

>  <Index>
783

>  <MOLENAME>
Methyl gallate

>  <MolWt>
184.14

>  <Pathways>
Ezyme

>  <Plate>
PLATE 010

>  <QR code>
1151478039

>  <Receptor>
Reverse transcriptase

>  <Reference>
1.Wang CR,et al. Environ Toxicol Pharmacol. 2014 Mar;37(2):626-37.

>  <Row>
G

>  <SMILES>
COC(=O)C1=CC(=C(C(=C1)O)O)O

>  <Target>
Reverse transcriptase inhibitor

>  <Weight>
10.3mg

$$$$
Lab-1.sdf
  ChemDraw05232018482D

 30 32  0  0  0  0  0  0  0  0999 V2000
   -1.0717    0.0000    0.0000 C   0  0  0  0  0  0  0  0  0  0  0  0
   -1.7862    0.0000    0.0000 C   0  0  0  0  0  0  0  0  0  0  0  0
   -2.5007    0.0000    0.0000 C   0  0  0  0  0  0  0  0  0  0  0  0
   -2.5007    0.0000    0.0000 C   0  0  0  0  0  0  0  0  0  0  0  0
   -1.7862    0.0000    0.0000 C   0  0  0  0  0  0  0  0  0  0  0  0
   -1.0717    0.0000    0.0000 O   0  0  0  0  0  0  0  0  0  0  0  0
   -1.7862    0.0000    0.0000 O   0  0  0  0  0  0  0  0  0  0  0  0
   -1.0717    0.0000    0.0000 C   0  0  0  0  0  0  0  0  0  0  0  0
   -1.0717    0.0000    0.0000 C   0  0  0  0  0  0  0  0  0  0  0  0
   -1.7862    0.0000    0.0000 C   0  0  0  0  0  0  0  0  0  0  0  0
   -1.7862    0.0000    0.0000 C   0  0  0  0  0  0  0  0  0  0  0  0
   -1.0717    0.0000    0.0000 C   0  0  0  0  0  0  0  0  0  0  0  0
   -0.3573    0.0000    0.0000 C   0  0  0  0  0  0  0  0  0  0  0  0
   -0.3573    0.0000    0.0000 O   0  0  0  0  0  0  0  0  0  0  0  0
    0.3572    0.0000    0.0000 O   0  0  0  0  0  0  0  0  0  0  0  0
    0.3572    0.0000    0.0000 C   0  0  0  0  0  0  0  0  0  0  0  0
    1.0717    0.0000    0.0000 C   0  0  0  0  0  0  0  0  0  0  0  0
    1.0717    0.0000    0.0000 C   0  0  0  0  0  0  0  0  0  0  0  0
    1.7862    0.0000    0.0000 C   0  0  0  0  0  0  0  0  0  0  0  0
    1.7862    0.0000    0.0000 C   0  0  0  0  0  0  0  0  0  0  0  0
    2.5006    0.0000    0.0000 C   0  0  0  0  0  0  0  0  0  0  0  0
    3.2151    0.0000    0.0000 C   0  0  0  0  0  0  0  0  0  0  0  0
    3.2151    0.0000    0.0000 C   0  0  0  0  0  0  0  0  0  0  0  0
    2.5006    0.0000    0.0000 C   0  0  0  0  0  0  0  0  0  0  0  0
   -1.0717    0.0000    0.0000 O   0  0  0  0  0  0  0  0  0  0  0  0
   -2.5007    0.0000    0.0000 O   0  0  0  0  0  0  0  0  0  0  0  0
   -2.5007    0.0000    0.0000 O   0  0  0  0  0  0  0  0  0  0  0  0
   -3.2151    0.0000    0.0000 O   0  0  0  0  0  0  0  0  0  0  0  0
   -3.2151    0.0000    0.0000 O   0  0  0  0  0  0  0  0  0  0  0  0
   -1.7862    0.0000    0.0000 O   0  0  0  0  0  0  0  0  0  0  0  0
  1  2  1  0      
  2  3  1  0      
  3  4  1  0      
  4  5  1  0      
  5  6  1  0      
  1  6  1  0      
  5  7  1  0      
  7  8  1  0      
  8  9  1  0      
  9 10  1  0      
 10 11  1  0      
 11 12  1  0      
 12 13  1  0      
 13 14  1  0      
  9 14  1  0      
 13 15  1  0      
 15 16  1  0      
 17 16  1  4      
 17 18  2  0      
 18 19  1  0      
 19 20  2  0      
 20 21  1  0      
 21 22  2  0      
 22 23  1  0      
 23 24  2  0      
 19 24  1  0      
 12 25  1  0      
 11 26  1  0      
 10 27  1  0      
  4 28  1  0      
  3 29  1  0      
  2 30  1  0      
M  END
>  <Bioactivity>
Rosavin has antidepressant and anxiolytic actions, helps balance all the neurotransmitters.

>  <CAS>
84954-92-7

>  <Col>
5

>  <Formula>
C20H28O10

>  <ID>
T3886

>  <Index>
784

>  <MOLENAME>
ROSAVIN

>  <MolWt>
428.434

>  <Pathways>
Metabolism

>  <Plate>
PLATE 010

>  <QR code>
1151478038

>  <Receptor>
CYP3A4

>  <Reference>
1. Grech-Baran M1,et al. Biotransformation of cinnamyl alcohol to rosavins by non-transformed wild type and hairy root cultures of Rhodiola kirilowii. Biotechnol Lett. 2014 Mar;36(3):649-56.

>  <Row>
G

>  <SMILES>
C1C(C(C(C(O1)OCC2C(C(C(C(O2)OCC=CC3=CC=CC=C3)O)O)O)O)O)O

>  <Target>
CYP inhibitor

>  <Weight>
10.2mg

$$$$
Lab-1.sdf
  ChemDraw05232018482D

 51 56  0  0  0  0  0  0  0  0999 V2000
    3.9296    0.0000    0.0000 C   0  0  0  0  0  0  0  0  0  0  0  0
    3.2151    0.0000    0.0000 C   0  0  0  0  0  0  0  0  0  0  0  0
    3.2151    0.0000    0.0000 C   0  0  0  0  0  0  0  0  0  0  0  0
    2.5006    0.0000    0.0000 C   0  0  0  0  0  0  0  0  0  0  0  0
    1.7861    0.0000    0.0000 C   0  0  0  0  0  0  0  0  0  0  0  0
    1.7861    0.0000    0.0000 C   0  0  0  0  0  0  0  0  0  0  0  0
    2.5006    0.0000    0.0000 O   0  0  0  0  0  0  0  0  0  0  0  0
    1.0717    0.0000    0.0000 O   0  0  0  0  0  0  0  0  0  0  0  0
    0.3572    0.0000    0.0000 C   0  0  0  0  0  0  0  0  0  0  0  0
   -0.3572    0.0000    0.0000 C   0  0  0  0  0  0  0  0  0  0  0  0
   -1.0717    0.0000    0.0000 C   0  0  0  0  0  0  0  0  0  0  0  0
   -1.7861    0.0000    0.0000 C   0  0  0  0  0  0  0  0  0  0  0  0
   -1.7861    0.0000    0.0000 C   0  0  0  0  0  0  0  0  0  0  0  0
   -1.0717    0.0000    0.0000 C   0  0  0  0  0  0  0  0  0  0  0  0
   -0.3572    0.0000    0.0000 O   0  0  0  0  0  0  0  0  0  0  0  0
   -1.0717    0.0000    0.0000 O   0  0  0  0  0  0  0  0  0  0  0  0
   -0.3572    0.0000    0.0000 C   0  0  0  0  0  0  0  0  0  0  0  0
   -0.3572    0.0000    0.0000 C   0  0  0  0  0  0  0  0  0  0  0  0
    0.3572    0.0000    0.0000 C   0  0  0  0  0  0  0  0  0  0  0  0
    1.0717    0.0000    0.0000 C   0  0  0  0  0  0  0  0  0  0  0  0
    1.0717    0.0000    0.0000 C   0  0  0  0  0  0  0  0  0  0  0  0
    0.3572    0.0000    0.0000 C   0  0  0  0  0  0  0  0  0  0  0  0
    1.7861    0.0000    0.0000 O   0  0  0  0  0  0  0  0  0  0  0  0
    2.5006    0.0000    0.0000 C   0  0  0  0  0  0  0  0  0  0  0  0
    2.5006    0.0000    0.0000 C   0  0  0  0  0  0  0  0  0  0  0  0
    1.7861    0.0000    0.0000 C   0  0  0  0  0  0  0  0  0  0  0  0
    1.7861    0.0000    0.0000 O   0  0  0  0  0  0  0  0  0  0  0  0
    3.2151    0.0000    0.0000 C   0  0  0  0  0  0  0  0  0  0  0  0
    3.2151    0.0000    0.0000 C   0  0  0  0  0  0  0  0  0  0  0  0
    3.9296    0.0000    0.0000 C   0  0  0  0  0  0  0  0  0  0  0  0
    4.6440    0.0000    0.0000 C   0  0  0  0  0  0  0  0  0  0  0  0
    4.6440    0.0000    0.0000 C   0  0  0  0  0  0  0  0  0  0  0  0
    3.9296    0.0000    0.0000 C   0  0  0  0  0  0  0  0  0  0  0  0
    5.3585    0.0000    0.0000 O   0  0  0  0  0  0  0  0  0  0  0  0
    0.3572    0.0000    0.0000 O   0  0  0  0  0  0  0  0  0  0  0  0
   -2.5006    0.0000    0.0000 O   0  0  0  0  0  0  0  0  0  0  0  0
   -3.2151    0.0000    0.0000 C   0  0  0  0  0  0  0  0  0  0  0  0
   -3.9295    0.0000    0.0000 C   0  0  0  0  0  0  0  0  0  0  0  0
   -4.6440    0.0000    0.0000 C   0  0  0  0  0  0  0  0  0  0  0  0
   -4.6440    0.0000    0.0000 C   0  0  0  0  0  0  0  0  0  0  0  0
   -3.9295    0.0000    0.0000 C   0  0  0  0  0  0  0  0  0  0  0  0
   -3.2151    0.0000    0.0000 O   0  0  0  0  0  0  0  0  0  0  0  0
   -3.9295    0.0000    0.0000 C   0  0  0  0  0  0  0  0  0  0  0  0
   -5.3585    0.0000    0.0000 O   0  0  0  0  0  0  0  0  0  0  0  0
   -5.3585    0.0000    0.0000 O   0  0  0  0  0  0  0  0  0  0  0  0
   -3.9295    0.0000    0.0000 O   0  0  0  0  0  0  0  0  0  0  0  0
   -2.5006    0.0000    0.0000 O   0  0  0  0  0  0  0  0  0  0  0  0
   -1.0717    0.0000    0.0000 O   0  0  0  0  0  0  0  0  0  0  0  0
    1.0717    0.0000    0.0000 O   0  0  0  0  0  0  0  0  0  0  0  0
    2.5006    0.0000    0.0000 O   0  0  0  0  0  0  0  0  0  0  0  0
    3.9296    0.0000    0.0000 O   0  0  0  0  0  0  0  0  0  0  0  0
  1  2  1  0      
  2  3  1  0      
  3  4  1  0      
  4  5  1  0      
  5  6  1  0      
  6  7  1  0      
  2  7  1  0      
  6  8  1  0      
  8  9  1  0      
  9 10  1  0      
 10 11  1  0      
 11 12  1  0      
 12 13  1  0      
 13 14  1  0      
 14 15  1  0      
 10 15  1  0      
 14 16  1  0      
 16 17  1  0      
 17 18  2  0      
 18 19  1  0      
 19 20  2  0      
 20 21  1  0      
 21 22  2  0      
 17 22  1  0      
 21 23  1  0      
 23 24  1  0      
 24 25  2  0      
 25 26  1  0      
 20 26  1  0      
 26 27  2  0      
 24 28  1  0      
 28 29  2  0      
 29 30  1  0      
 30 31  2  0      
 31 32  1  0      
 32 33  2  0      
 28 33  1  0      
 31 34  1  0      
 19 35  1  0      
 13 36  1  0      
 36 37  1  0      
 37 38  1  0      
 38 39  1  0      
 39 40  1  0      
 40 41  1  0      
 41 42  1  0      
 37 42  1  0      
 41 43  1  0      
 40 44  1  0      
 39 45  1  0      
 38 46  1  0      
 12 47  1  0      
 11 48  1  0      
  5 49  1  0      
  4 50  1  0      
  3 51  1  0      
M  END
>  <Bioactivity>
Ligustroflavone has anti-inflammatory activity.

>  <CAS>
260413-62-5

>  <Col>
6

>  <Formula>
C33H40O18

>  <ID>
T3802

>  <Index>
785

>  <MOLENAME>
Ligustroflavone

>  <MolWt>
724.67

>  <Pathways>
Immunology/ Inflammation

>  <Plate>
PLATE 010

>  <QR code>
1151478037

>  <Receptor>
Others

>  <Reference>
1. Pieroni A,et al. Isolation and structure elucidation of ligustroflavone, a new apigenin triglycoside from the leaves of Ligustrum vulgare L. Pharmazie. 2000 Jan;55(1):78-80.

>  <Row>
G

>  <SMILES>
CC1C(C(C(C(O1)OCC2C(C(C(C(O2)OC3=CC(=C4C(=C3)OC(=CC4=O)C5=CC=C(C=C5)O)O)OC6C(C(C(C(O6)C)O)O)O)O)O)O)O)O

>  <Target>
Others

>  <Weight>
10.3mg

$$$$
Lab-1.sdf
  ChemDraw05232018482D

  9  9  0  0  0  0  0  0  0  0999 V2000
    0.7144    0.0000    0.0000 C   0  0  0  0  0  0  0  0  0  0  0  0
    0.7144    0.0000    0.0000 C   0  0  0  0  0  0  0  0  0  0  0  0
    0.0001    0.0000    0.0000 C   0  0  0  0  0  0  0  0  0  0  0  0
   -0.7144    0.0000    0.0000 C   0  0  0  0  0  0  0  0  0  0  0  0
   -0.7144    0.0000    0.0000 C   0  0  0  0  0  0  0  0  0  0  0  0
    0.0001    0.0000    0.0000 C   0  0  0  0  0  0  0  0  0  0  0  0
    0.0001    0.0000    0.0000 C   0  0  0  0  0  0  0  0  0  0  0  0
    0.7144    0.0000    0.0000 O   0  0  0  0  0  0  0  0  0  0  0  0
    0.0001    0.0000    0.0000 O   0  0  0  0  0  0  0  0  0  0  0  0
  1  2  2  0      
  2  3  1  0      
  3  4  2  0      
  4  5  1  0      
  5  6  2  0      
  1  6  1  0      
  6  7  1  0      
  7  8  1  0      
  3  9  1  0      
M  END
>  <Bioactivity>
4-Hydroxybenzyl alcohol exhibits beneficial effects in cerebral ischemic injury, has neuroprotective effect through upregulation of Nrf2, Prdx6, and PDI expression via the PI3K/Akt pathway.4-Hydroxyb
enzyl alcohol inhibit the development of new blood vessels by targeting multiple mechanisms of the angiogenic process, may as a promising candidate for the establishment of anti-angiogenic treatment s
trategies in cancer therapy. 

>  <CAS>
623-05-2

>  <Col>
7

>  <Formula>
C7H8O2

>  <ID>
T3752

>  <Index>
786

>  <MOLENAME>
4-Hydroxybenzyl alcohol

>  <MolWt>
124.139

>  <Pathways>
PI3K/Akt 

>  <Plate>
PLATE 010

>  <QR code>
1151478036

>  <Receptor>
Others

>  <Reference>
1.Laschke MW,et al.4-hydroxybenzyl alcohol: a novel inhibitor of tumor angiogenesis and growth.           2013 Jul 19;93(1):44-50. 

>  <Row>
G

>  <SMILES>
C1=CC(=CC=C1CO)O

>  <Target>
Others

>  <Weight>
10.2mg

$$$$
Lab-1.sdf
  ChemDraw05232018482D

 13 13  0  0  0  0  0  0  0  0999 V2000
   -1.4289    0.0000    0.0000 C   0  0  0  0  0  0  0  0  0  0  0  0
   -0.7144    0.0000    0.0000 O   0  0  0  0  0  0  0  0  0  0  0  0
   -0.7144    0.0000    0.0000 C   0  0  0  0  0  0  0  0  0  0  0  0
   -0.0001    0.0000    0.0000 C   0  0  0  0  0  0  0  0  0  0  0  0
   -0.0001    0.0000    0.0000 C   0  0  0  0  0  0  0  0  0  0  0  0
   -0.7144    0.0000    0.0000 C   0  0  0  0  0  0  0  0  0  0  0  0
   -1.4289    0.0000    0.0000 C   0  0  0  0  0  0  0  0  0  0  0  0
   -1.4289    0.0000    0.0000 C   0  0  0  0  0  0  0  0  0  0  0  0
   -0.7144    0.0000    0.0000 C   0  0  0  0  0  0  0  0  0  0  0  0
   -0.0001    0.0000    0.0000 O   0  0  0  0  0  0  0  0  0  0  0  0
   -1.4289    0.0000    0.0000 O   0  0  0  0  0  0  0  0  0  0  0  0
    0.7145    0.0000    0.0000 O   0  0  0  0  0  0  0  0  0  0  0  0
    1.4289    0.0000    0.0000 C   0  0  0  0  0  0  0  0  0  0  0  0
  1  2  1  0      
  2  3  1  0      
  3  4  2  0      
  4  5  1  0      
  5  6  2  0      
  6  7  1  0      
  7  8  2  0      
  3  8  1  0      
  6  9  1  0      
  9 10  2  0      
  9 11  1  0      
  4 12  1  0      
 12 13  1  0      
M  END
>  <Bioactivity>
Veratric acid plays an important role in producing antibiotics and various dyes. They are used as intermediates for pharmaceuticals (especially for antipyretic analgesic, antirheumatism) and other org
anic synthesis. It is used as matrix for ionization of peptides, proteins and carbohydrates.

>  <CAS>
93-07-2

>  <Col>
8

>  <Formula>
C9H10O4

>  <ID>
T3744

>  <Index>
787

>  <MOLENAME>
Veratric acid

>  <MolWt>
182.17

>  <Pathways>
Immunology/Inflammation

>  <Plate>
PLATE 010

>  <QR code>
1151478035

>  <Receptor>
Others

>  <Reference>
1.Lee KE, et al. A study of facial wrinkles improvement effect of veratric acid from cauliflower mushroom through photo-protective mechanisms against UVB irradiation. Arch Dermatol Res. 2016 Apr;308(3
):183-92. 

>  <Row>
G

>  <SMILES>
COC1=C(C=C(C=C1)C(=O)O)OC

>  <Target>
Others

>  <Weight>
10.4mg

$$$$
Lab-1.sdf
  ChemDraw05232018482D

 33 36  0  0  0  0  0  0  0  0999 V2000
    4.6749    0.0000    0.0000 C   0  0  0  0  0  0  0  0  0  0  0  0
    3.8499    0.0000    0.0000 C   0  0  0  0  0  0  0  0  0  0  0  0
    3.8499    0.0000    0.0000 C   0  0  0  0  0  0  0  0  0  0  0  0
    3.0249    0.0000    0.0000 C   0  0  0  0  0  0  0  0  0  0  0  0
    2.5400    0.0000    0.0000 C   0  0  0  0  0  0  0  0  0  0  0  0
    1.7554    0.0000    0.0000 C   0  0  0  0  0  0  0  0  0  0  0  0
    1.7554    0.0000    0.0000 C   0  0  0  0  0  0  0  0  0  0  0  0
    2.5400    0.0000    0.0000 O   0  0  0  0  0  0  0  0  0  0  0  0
    1.0409    0.0000    0.0000 C   0  0  0  0  0  0  0  0  0  0  0  0
    0.3264    0.0000    0.0000 C   0  0  0  0  0  0  0  0  0  0  0  0
    0.3264    0.0000    0.0000 C   0  0  0  0  0  0  0  0  0  0  0  0
    1.0409    0.0000    0.0000 C   0  0  0  0  0  0  0  0  0  0  0  0
    1.0409    0.0000    0.0000 O   0  0  0  0  0  0  0  0  0  0  0  0
    1.7554    0.0000    0.0000 C   0  0  0  0  0  0  0  0  0  0  0  0
   -0.3880    0.0000    0.0000 C   0  0  0  0  0  0  0  0  0  0  0  0
   -0.3880    0.0000    0.0000 O   0  0  0  0  0  0  0  0  0  0  0  0
   -1.1025    0.0000    0.0000 C   0  0  0  0  0  0  0  0  0  0  0  0
   -1.1025    0.0000    0.0000 C   0  0  0  0  0  0  0  0  0  0  0  0
   -0.3880    0.0000    0.0000 O   0  0  0  0  0  0  0  0  0  0  0  0
   -1.8170    0.0000    0.0000 C   0  0  0  0  0  0  0  0  0  0  0  0
   -1.8170    0.0000    0.0000 O   0  0  0  0  0  0  0  0  0  0  0  0
   -2.5314    0.0000    0.0000 C   0  0  0  0  0  0  0  0  0  0  0  0
   -3.2459    0.0000    0.0000 C   0  0  0  0  0  0  0  0  0  0  0  0
   -3.9604    0.0000    0.0000 C   0  0  0  0  0  0  0  0  0  0  0  0
   -3.9604    0.0000    0.0000 C   0  0  0  0  0  0  0  0  0  0  0  0
   -3.2459    0.0000    0.0000 C   0  0  0  0  0  0  0  0  0  0  0  0
   -2.5314    0.0000    0.0000 O   0  0  0  0  0  0  0  0  0  0  0  0
   -3.2459    0.0000    0.0000 C   0  0  0  0  0  0  0  0  0  0  0  0
   -3.9604    0.0000    0.0000 O   0  0  0  0  0  0  0  0  0  0  0  0
   -4.6749    0.0000    0.0000 O   0  0  0  0  0  0  0  0  0  0  0  0
   -4.6749    0.0000    0.0000 O   0  0  0  0  0  0  0  0  0  0  0  0
   -3.2459    0.0000    0.0000 O   0  0  0  0  0  0  0  0  0  0  0  0
    3.8499    0.0000    0.0000 O   0  0  0  0  0  0  0  0  0  0  0  0
  1  2  1  0      
  2  3  1  0      
  2  4  1  0      
  4  5  1  0      
  5  6  1  0      
  6  7  2  0      
  7  8  1  0      
  4  8  1  0      
  7  9  1  0      
  9 10  2  0      
 10 11  1  0      
 11 12  2  0      
  6 12  1  0      
 12 13  1  0      
 13 14  1  0      
 11 15  1  0      
 15 16  2  0      
 15 17  1  0      
 17 18  2  0      
 18 19  1  0      
 10 19  1  0      
 18 20  1  0      
 20 21  1  0      
 21 22  1  0      
 22 23  1  0      
 23 24  1  0      
 24 25  1  0      
 25 26  1  0      
 26 27  1  0      
 22 27  1  0      
 26 28  1  0      
 28 29  1  0      
 25 30  1  0      
 24 31  1  0      
 23 32  1  0      
  2 33  1  0      
M  END
>  <Bioactivity>
Prim-O-glucosylcimifugin can inhibit the proliferation of SMC(smooth muscle cell) stimulated by TNF-alpha, increase the proportion of G0/G1 phase.

>  <CAS>
80681-45-4

>  <Col>
9

>  <Formula>
C22H28O11

>  <ID>
T3805

>  <Index>
788

>  <MOLENAME>
CIMIFUGIN BETA-D-GLUCOPYRANOSIDE

>  <MolWt>
468.45

>  <Pathways>
Stem cell

>  <Plate>
PLATE 010

>  <QR code>
1151478034

>  <Receptor>
TNF-¦Á

>  <Reference>
1. Zhao XL,et al. [Studies on effects of calycosin-7-O-¦Â-D-glucoside on prim-O-glucosylcimifugin and cimifugin in vivo pharmacokinetics]. Zhongguo Zhong Yao Za Zhi.

>  <Row>
G

>  <SMILES>
CC(C)(C1CC2=C(O1)C=C3C(=C2OC)C(=O)C=C(O3)COC4C(C(C(C(O4)CO)O)O)O)O

>  <Target>
TNF-¦Á

>  <Weight>
10.4mg

$$$$
Lab-1.sdf
  ChemDraw05232018482D

 30 33  0  0  0  0  0  0  0  0999 V2000
   -2.8874    0.0000    0.0000 C   0  0  0  0  0  0  0  0  0  0  0  0
   -2.0804    0.0000    0.0000 O   0  0  0  0  0  0  0  0  0  0  0  0
   -1.8255    0.0000    0.0000 C   0  0  0  0  0  0  0  0  0  0  0  0
   -1.0185    0.0000    0.0000 C   0  0  0  0  0  0  0  0  0  0  0  0
   -0.7636    0.0000    0.0000 C   0  0  0  0  0  0  0  0  0  0  0  0
   -1.3156    0.0000    0.0000 C   0  0  0  0  0  0  0  0  0  0  0  0
   -2.1226    0.0000    0.0000 C   0  0  0  0  0  0  0  0  0  0  0  0
   -2.3775    0.0000    0.0000 C   0  0  0  0  0  0  0  0  0  0  0  0
   -1.0607    0.0000    0.0000 C   0  0  0  0  0  0  0  0  0  0  0  0
   -0.2760    0.0000    0.0000 C   0  0  0  0  0  0  0  0  0  0  0  0
    0.5087    0.0000    0.0000 C   0  0  0  0  0  0  0  0  0  0  0  0
    0.9936    0.0000    0.0000 O   0  0  0  0  0  0  0  0  0  0  0  0
    0.5087    0.0000    0.0000 C   0  0  0  0  0  0  0  0  0  0  0  0
   -0.2760    0.0000    0.0000 C   0  0  0  0  0  0  0  0  0  0  0  0
   -1.0607    0.0000    0.0000 C   0  0  0  0  0  0  0  0  0  0  0  0
   -1.5456    0.0000    0.0000 O   0  0  0  0  0  0  0  0  0  0  0  0
    0.7636    0.0000    0.0000 C   0  0  0  0  0  0  0  0  0  0  0  0
    1.5706    0.0000    0.0000 C   0  0  0  0  0  0  0  0  0  0  0  0
    1.8255    0.0000    0.0000 C   0  0  0  0  0  0  0  0  0  0  0  0
    1.2735    0.0000    0.0000 C   0  0  0  0  0  0  0  0  0  0  0  0
    0.4665    0.0000    0.0000 C   0  0  0  0  0  0  0  0  0  0  0  0
    0.2115    0.0000    0.0000 C   0  0  0  0  0  0  0  0  0  0  0  0
   -0.0856    0.0000    0.0000 O   0  0  0  0  0  0  0  0  0  0  0  0
   -0.8926    0.0000    0.0000 C   0  0  0  0  0  0  0  0  0  0  0  0
    1.5284    0.0000    0.0000 O   0  0  0  0  0  0  0  0  0  0  0  0
    2.3354    0.0000    0.0000 C   0  0  0  0  0  0  0  0  0  0  0  0
    2.6325    0.0000    0.0000 O   0  0  0  0  0  0  0  0  0  0  0  0
    2.8874    0.0000    0.0000 C   0  0  0  0  0  0  0  0  0  0  0  0
   -0.4665    0.0000    0.0000 O   0  0  0  0  0  0  0  0  0  0  0  0
    0.3406    0.0000    0.0000 C   0  0  0  0  0  0  0  0  0  0  0  0
  1  2  1  0      
  2  3  1  0      
  3  4  2  0      
  4  5  1  0      
  5  6  2  0      
  6  7  1  0      
  7  8  2  0      
  3  8  1  0      
  6  9  1  0      
  9 10  1  0      
 10 11  1  0      
 11 12  1  0      
 12 13  1  0      
 13 14  1  0      
 10 14  1  0      
 14 15  1  0      
 15 16  1  0      
  9 16  1  0      
 13 17  1  0      
 17 18  2  0      
 18 19  1  0      
 19 20  2  0      
 20 21  1  0      
 21 22  2  0      
 17 22  1  0      
 21 23  1  0      
 23 24  1  0      
 20 25  1  0      
 25 26  1  0      
 19 27  1  0      
 27 28  1  0      
  4 29  1  0      
 29 30  1  0      
M  END
>  <Bioactivity>
Magnolin has anti-inflammatory and antioxidative effects. Magnolin reduces the renal oxidative stress, suppresses caspase-3 activity, and increases Bcl-2 expression in vivo and in vitro. Magnolin mi
ght be a naturally occurring chemoprevention and therapeutic agent capable of inhibiting cell proliferation and transformation by targeting c.

>  <CAS>
31008-18-1

>  <Col>
10

>  <Formula>
C23H28O7

>  <ID>
T3857

>  <Index>
789

>  <MOLENAME>
magnolin

>  <MolWt>
416.47

>  <Pathways>
MAPK

>  <Plate>
PLATE 010

>  <QR code>
1151478033

>  <Receptor>
ERK1 and ERK2

>  <Reference>
1. Wang F,et al. Magnolin protects against contrast-induced nephropathy in rats via antioxidation and antiapoptosis. Oxid Med Cell Longev. 2014;2014:203458.

>  <Row>
G

>  <SMILES>
COC1=C(C=C(C=C1)C2C3COC(C3CO2)C4=CC(=C(C(=C4)OC)OC)OC)OC

>  <Target>
ERK inhibitor

>  <Weight>
10.1mg

$$$$
Lab-1.sdf
  ChemDraw05232018482D

 44 48  0  0  0  0  0  0  0  0999 V2000
   -3.9295    0.0000    0.0000 C   0  0  0  0  0  0  0  0  0  0  0  0
   -3.9295    0.0000    0.0000 O   0  0  0  0  0  0  0  0  0  0  0  0
   -3.2151    0.0000    0.0000 C   0  0  0  0  0  0  0  0  0  0  0  0
   -3.2151    0.0000    0.0000 C   0  0  0  0  0  0  0  0  0  0  0  0
   -2.5006    0.0000    0.0000 C   0  0  0  0  0  0  0  0  0  0  0  0
   -1.7861    0.0000    0.0000 C   0  0  0  0  0  0  0  0  0  0  0  0
   -1.7861    0.0000    0.0000 C   0  0  0  0  0  0  0  0  0  0  0  0
   -2.5006    0.0000    0.0000 C   0  0  0  0  0  0  0  0  0  0  0  0
   -1.0717    0.0000    0.0000 O   0  0  0  0  0  0  0  0  0  0  0  0
   -0.3572    0.0000    0.0000 C   0  0  0  0  0  0  0  0  0  0  0  0
   -0.3572    0.0000    0.0000 C   0  0  0  0  0  0  0  0  0  0  0  0
   -1.0717    0.0000    0.0000 C   0  0  0  0  0  0  0  0  0  0  0  0
   -1.0717    0.0000    0.0000 O   0  0  0  0  0  0  0  0  0  0  0  0
    0.3572    0.0000    0.0000 O   0  0  0  0  0  0  0  0  0  0  0  0
    0.3572    0.0000    0.0000 C   0  0  0  0  0  0  0  0  0  0  0  0
    1.0717    0.0000    0.0000 C   0  0  0  0  0  0  0  0  0  0  0  0
    1.0717    0.0000    0.0000 C   0  0  0  0  0  0  0  0  0  0  0  0
    0.3572    0.0000    0.0000 C   0  0  0  0  0  0  0  0  0  0  0  0
   -0.3572    0.0000    0.0000 C   0  0  0  0  0  0  0  0  0  0  0  0
   -0.3572    0.0000    0.0000 O   0  0  0  0  0  0  0  0  0  0  0  0
   -1.0717    0.0000    0.0000 C   0  0  0  0  0  0  0  0  0  0  0  0
   -1.0717    0.0000    0.0000 O   0  0  0  0  0  0  0  0  0  0  0  0
    0.3572    0.0000    0.0000 O   0  0  0  0  0  0  0  0  0  0  0  0
    1.7861    0.0000    0.0000 O   0  0  0  0  0  0  0  0  0  0  0  0
    1.7861    0.0000    0.0000 O   0  0  0  0  0  0  0  0  0  0  0  0
    0.3572    0.0000    0.0000 C   0  0  0  0  0  0  0  0  0  0  0  0
    0.3572    0.0000    0.0000 C   0  0  0  0  0  0  0  0  0  0  0  0
    1.0717    0.0000    0.0000 C   0  0  0  0  0  0  0  0  0  0  0  0
    1.7861    0.0000    0.0000 C   0  0  0  0  0  0  0  0  0  0  0  0
    1.7861    0.0000    0.0000 C   0  0  0  0  0  0  0  0  0  0  0  0
    1.0717    0.0000    0.0000 C   0  0  0  0  0  0  0  0  0  0  0  0
    2.5006    0.0000    0.0000 O   0  0  0  0  0  0  0  0  0  0  0  0
    2.5006    0.0000    0.0000 C   0  0  0  0  0  0  0  0  0  0  0  0
    1.7861    0.0000    0.0000 C   0  0  0  0  0  0  0  0  0  0  0  0
    1.7861    0.0000    0.0000 C   0  0  0  0  0  0  0  0  0  0  0  0
    2.5006    0.0000    0.0000 C   0  0  0  0  0  0  0  0  0  0  0  0
    3.2151    0.0000    0.0000 C   0  0  0  0  0  0  0  0  0  0  0  0
    3.2151    0.0000    0.0000 O   0  0  0  0  0  0  0  0  0  0  0  0
    3.9295    0.0000    0.0000 C   0  0  0  0  0  0  0  0  0  0  0  0
    3.9295    0.0000    0.0000 O   0  0  0  0  0  0  0  0  0  0  0  0
    2.5006    0.0000    0.0000 O   0  0  0  0  0  0  0  0  0  0  0  0
    1.0717    0.0000    0.0000 O   0  0  0  0  0  0  0  0  0  0  0  0
    1.0717    0.0000    0.0000 O   0  0  0  0  0  0  0  0  0  0  0  0
   -2.5006    0.0000    0.0000 O   0  0  0  0  0  0  0  0  0  0  0  0
  1  2  1  0      
  2  3  1  0      
  3  4  2  0      
  4  5  1  0      
  5  6  2  0      
  6  7  1  0      
  7  8  2  0      
  3  8  1  0      
  7  9  1  0      
  9 10  1  0      
 10 11  2  0      
 11 12  1  0      
  6 12  1  0      
 12 13  2  0      
 11 14  1  0      
 14 15  1  0      
 15 16  1  0      
 16 17  1  0      
 17 18  1  0      
 18 19  1  0      
 19 20  1  0      
 15 20  1  0      
 19 21  1  0      
 21 22  1  0      
 18 23  1  0      
 17 24  1  0      
 16 25  1  0      
 10 26  1  0      
 26 27  2  0      
 27 28  1  0      
 28 29  2  0      
 29 30  1  0      
 30 31  2  0      
 26 31  1  0      
 29 32  1  0      
 32 33  1  0      
 33 34  1  0      
 34 35  1  0      
 35 36  1  0      
 36 37  1  0      
 37 38  1  0      
 33 38  1  0      
 37 39  1  0      
 39 40  1  0      
 36 41  1  0      
 35 42  1  0      
 34 43  1  0      
  5 44  1  0      
M  END
>  <Bioactivity>
Complanatoside A is a flavonol glycoside isolated from Astragalus complanatus

>  <CAS>
146501-37-3

>  <Col>
11

>  <Formula>
C27H30O18

>  <ID>
T3922

>  <Index>
790

>  <MOLENAME>
Complanatoside A

>  <MolWt>
642.5

>  <Pathways>
Others

>  <Plate>
PLATE 010

>  <QR code>
1151478032

>  <Receptor>
Others

>  <Reference>
1. Zhang JJ1, Yan XL, Zhang YJ, et al.[Determination of complanatoside A in semen Astragali complanati by HPLC].Zhongguo Zhong Yao Za Zhi. 2005 Apr;30(8):600-2.

>  <Row>
G

>  <SMILES>
COC1=CC(=C2C(=C1)OC(=C(C2=O)OC3C(C(C(C(O3)CO)O)O)O)C4=CC=C(C=C4)OC5C(C(C(C(O5)CO)O)O)O)O

>  <Target>
Others

>  <Weight>
10.2mg

$$$$
Lab-1.sdf
  ChemDraw05232018482D

 55 62  0  0  0  0  0  0  0  0999 V2000
    0.9497    0.0000    0.0000 C   0  0  0  0  0  0  0  0  0  0  0  0
    1.3801    0.0000    0.0000 C   0  0  0  0  0  0  0  0  0  0  0  0
    2.2048    0.0000    0.0000 C   0  0  0  0  0  0  0  0  0  0  0  0
    2.6351    0.0000    0.0000 C   0  0  0  0  0  0  0  0  0  0  0  0
    2.2408    0.0000    0.0000 C   0  0  0  0  0  0  0  0  0  0  0  0
    1.4161    0.0000    0.0000 C   0  0  0  0  0  0  0  0  0  0  0  0
    0.9857    0.0000    0.0000 O   0  0  0  0  0  0  0  0  0  0  0  0
    1.0217    0.0000    0.0000 O   0  0  0  0  0  0  0  0  0  0  0  0
    0.1970    0.0000    0.0000 C   0  0  0  0  0  0  0  0  0  0  0  0
   -0.2334    0.0000    0.0000 C   0  0  0  0  0  0  0  0  0  0  0  0
   -1.0581    0.0000    0.0000 C   0  0  0  0  0  0  0  0  0  0  0  0
   -1.4525    0.0000    0.0000 C   0  0  0  0  0  0  0  0  0  0  0  0
   -1.0221    0.0000    0.0000 C   0  0  0  0  0  0  0  0  0  0  0  0
   -0.1973    0.0000    0.0000 C   0  0  0  0  0  0  0  0  0  0  0  0
    0.5131    0.0000    0.0000 C   0  0  0  0  0  0  0  0  0  0  0  0
   -0.1478    0.0000    0.0000 C   0  0  0  0  0  0  0  0  0  0  0  0
    0.5902    0.0000    0.0000 O   0  0  0  0  0  0  0  0  0  0  0  0
   -1.4164    0.0000    0.0000 C   0  0  0  0  0  0  0  0  0  0  0  0
   -2.2411    0.0000    0.0000 C   0  0  0  0  0  0  0  0  0  0  0  0
   -2.6715    0.0000    0.0000 C   0  0  0  0  0  0  0  0  0  0  0  0
   -2.2771    0.0000    0.0000 C   0  0  0  0  0  0  0  0  0  0  0  0
   -2.6998    0.0000    0.0000 C   0  0  0  0  0  0  0  0  0  0  0  0
   -3.5261    0.0000    0.0000 C   0  0  0  0  0  0  0  0  0  0  0  0
   -3.9759    0.0000    0.0000 C   0  0  0  0  0  0  0  0  0  0  0  0
   -3.5129    0.0000    0.0000 C   0  0  0  0  0  0  0  0  0  0  0  0
   -3.9149    0.0000    0.0000 C   0  0  0  0  0  0  0  0  0  0  0  0
   -4.7751    0.0000    0.0000 C   0  0  0  0  0  0  0  0  0  0  0  0
   -5.1989    0.0000    0.0000 C   0  0  0  0  0  0  0  0  0  0  0  0
   -4.4700    0.0000    0.0000 C   0  0  0  0  0  0  0  0  0  0  0  0
   -4.4403    0.0000    0.0000 C   0  0  0  0  0  0  0  0  0  0  0  0
   -5.1394    0.0000    0.0000 C   0  0  0  0  0  0  0  0  0  0  0  0
   -5.8683    0.0000    0.0000 C   0  0  0  0  0  0  0  0  0  0  0  0
   -5.8980    0.0000    0.0000 C   0  0  0  0  0  0  0  0  0  0  0  0
   -4.7261    0.0000    0.0000 C   0  0  0  0  0  0  0  0  0  0  0  0
   -5.5003    0.0000    0.0000 C   0  0  0  0  0  0  0  0  0  0  0  0
   -5.4251    0.0000    0.0000 C   0  0  0  0  0  0  0  0  0  0  0  0
   -4.6979    0.0000    0.0000 O   0  0  0  0  0  0  0  0  0  0  0  0
   -5.1941    0.0000    0.0000 O   0  0  0  0  0  0  0  0  0  0  0  0
   -3.0683    0.0000    0.0000 C   0  0  0  0  0  0  0  0  0  0  0  0
   -2.5577    0.0000    0.0000 C   0  0  0  0  0  0  0  0  0  0  0  0
   -1.8828    0.0000    0.0000 C   0  0  0  0  0  0  0  0  0  0  0  0
    2.6711    0.0000    0.0000 O   0  0  0  0  0  0  0  0  0  0  0  0
    3.4598    0.0000    0.0000 O   0  0  0  0  0  0  0  0  0  0  0  0
    3.8542    0.0000    0.0000 C   0  0  0  0  0  0  0  0  0  0  0  0
    4.6789    0.0000    0.0000 C   0  0  0  0  0  0  0  0  0  0  0  0
    5.0733    0.0000    0.0000 C   0  0  0  0  0  0  0  0  0  0  0  0
    4.6429    0.0000    0.0000 C   0  0  0  0  0  0  0  0  0  0  0  0
    3.8182    0.0000    0.0000 C   0  0  0  0  0  0  0  0  0  0  0  0
    3.4238    0.0000    0.0000 O   0  0  0  0  0  0  0  0  0  0  0  0
    3.3878    0.0000    0.0000 C   0  0  0  0  0  0  0  0  0  0  0  0
    3.7821    0.0000    0.0000 O   0  0  0  0  0  0  0  0  0  0  0  0
    5.0372    0.0000    0.0000 O   0  0  0  0  0  0  0  0  0  0  0  0
    5.8980    0.0000    0.0000 O   0  0  0  0  0  0  0  0  0  0  0  0
    5.1093    0.0000    0.0000 O   0  0  0  0  0  0  0  0  0  0  0  0
    2.5991    0.0000    0.0000 O   0  0  0  0  0  0  0  0  0  0  0  0
  1  2  1  0      
  2  3  1  0      
  3  4  1  0      
  4  5  1  0      
  5  6  1  0      
  6  7  1  0      
  2  7  1  0      
  6  8  1  0      
  8  9  1  0      
  9 10  1  0      
 10 11  1  0      
 11 12  1  0      
 12 13  1  0      
 13 14  1  0      
  9 14  1  0      
 14 15  1  0      
 14 16  1  0      
 16 17  1  0      
 13 18  1  0      
 18 19  1  0      
 19 20  1  0      
 20 21  1  0      
 12 21  1  0      
 21 22  1  0      
 22 23  2  0      
 23 24  1  0      
 24 25  1  0      
 20 25  1  0      
 25 26  1  0      
 26 27  1  0      
 27 28  1  0      
 28 29  1  0      
 24 29  1  0      
 29 30  1  0      
 30 31  1  0      
 31 32  1  0      
 32 33  1  0      
 28 33  1  0      
 31 34  1  0      
 31 35  1  0      
 28 36  1  0      
 36 37  1  0      
 24 37  1  0      
 27 38  1  0      
 25 39  1  0      
 20 40  1  0      
 12 41  1  0      
  5 42  1  0      
  4 43  1  0      
 43 44  1  0      
 44 45  1  0      
 45 46  1  0      
 46 47  1  0      
 47 48  1  0      
 48 49  1  0      
 44 49  1  0      
 48 50  1  0      
 50 51  1  0      
 47 52  1  0      
 46 53  1  0      
 45 54  1  0      
  3 55  1  0      
M  END
>  <Bioactivity>
Saikosaponin is a novel SERCA inhibitor by inhibiting NF-¦ÊB and STAT3 signaling to protect against acetaminophen-induced hepatotoxicity.

>  <CAS>
20874-52-6

>  <Col>
2

>  <Formula>
C42H68O13

>  <ID>
T3913

>  <Index>
791

>  <MOLENAME>
Saikosaponin D

>  <MolWt>
780.98

>  <Pathways>
Immunology/ Inflammation; Jak/STAT

>  <Plate>
PLATE 010

>  <QR code>
1151478020

>  <Receptor>
NF-¦ÊB; STAT3

>  <Reference>
1.Liu RY1, Li JP.Saikosaponin-d inhibits proliferation of human undifferentiated thyroid carcinoma cells through induction of apoptosis and cell cycle arrest.Eur Rev Med Pharmacol Sci. 2014;18(17):243
5-43.

>  <Row>
H

>  <SMILES>
CC1C(C(C(C(O1)OC2CCC3(C(C2(C)CO)CCC4(C3C=CC56C4(CC(C7(C5CC(CC7)(C)C)CO6)O)C)C)C)O)OC8C(C(C(C(O8)CO)O)O)O)O

>  <Target>
NF-¦ªb inhibitor; STAT3 inhibitor

>  <Weight>
10.1mg

$$$$
Lab-1.sdf
  ChemDraw05232018482D

 62 70  0  0  0  0  0  0  0  0999 V2000
    7.1474    0.0000    0.0000 C   0  0  0  0  0  0  0  0  0  0  0  0
    6.3333    0.0000    0.0000 C   0  0  0  0  0  0  0  0  0  0  0  0
    5.8104    0.0000    0.0000 C   0  0  0  0  0  0  0  0  0  0  0  0
    4.9963    0.0000    0.0000 C   0  0  0  0  0  0  0  0  0  0  0  0
    4.7051    0.0000    0.0000 C   0  0  0  0  0  0  0  0  0  0  0  0
    4.1184    0.0000    0.0000 C   0  0  0  0  0  0  0  0  0  0  0  0
    3.3855    0.0000    0.0000 C   0  0  0  0  0  0  0  0  0  0  0  0
    3.5192    0.0000    0.0000 C   0  0  0  0  0  0  0  0  0  0  0  0
    4.3348    0.0000    0.0000 O   0  0  0  0  0  0  0  0  0  0  0  0
    2.7863    0.0000    0.0000 C   0  0  0  0  0  0  0  0  0  0  0  0
    2.1996    0.0000    0.0000 C   0  0  0  0  0  0  0  0  0  0  0  0
    2.5699    0.0000    0.0000 C   0  0  0  0  0  0  0  0  0  0  0  0
    2.1166    0.0000    0.0000 C   0  0  0  0  0  0  0  0  0  0  0  0
    1.2930    0.0000    0.0000 C   0  0  0  0  0  0  0  0  0  0  0  0
    0.9227    0.0000    0.0000 C   0  0  0  0  0  0  0  0  0  0  0  0
    1.3760    0.0000    0.0000 C   0  0  0  0  0  0  0  0  0  0  0  0
    1.0057    0.0000    0.0000 C   0  0  0  0  0  0  0  0  0  0  0  0
    0.1821    0.0000    0.0000 C   0  0  0  0  0  0  0  0  0  0  0  0
   -0.2712    0.0000    0.0000 C   0  0  0  0  0  0  0  0  0  0  0  0
    0.0991    0.0000    0.0000 C   0  0  0  0  0  0  0  0  0  0  0  0
   -0.3542    0.0000    0.0000 C   0  0  0  0  0  0  0  0  0  0  0  0
   -1.1779    0.0000    0.0000 C   0  0  0  0  0  0  0  0  0  0  0  0
   -1.5481    0.0000    0.0000 C   0  0  0  0  0  0  0  0  0  0  0  0
   -1.0948    0.0000    0.0000 C   0  0  0  0  0  0  0  0  0  0  0  0
   -2.3717    0.0000    0.0000 O   0  0  0  0  0  0  0  0  0  0  0  0
   -2.7420    0.0000    0.0000 C   0  0  0  0  0  0  0  0  0  0  0  0
   -3.5656    0.0000    0.0000 C   0  0  0  0  0  0  0  0  0  0  0  0
   -3.9359    0.0000    0.0000 C   0  0  0  0  0  0  0  0  0  0  0  0
   -3.4826    0.0000    0.0000 C   0  0  0  0  0  0  0  0  0  0  0  0
   -2.6590    0.0000    0.0000 C   0  0  0  0  0  0  0  0  0  0  0  0
   -2.2887    0.0000    0.0000 O   0  0  0  0  0  0  0  0  0  0  0  0
   -2.2057    0.0000    0.0000 C   0  0  0  0  0  0  0  0  0  0  0  0
   -1.3821    0.0000    0.0000 O   0  0  0  0  0  0  0  0  0  0  0  0
   -3.8529    0.0000    0.0000 O   0  0  0  0  0  0  0  0  0  0  0  0
   -4.7595    0.0000    0.0000 O   0  0  0  0  0  0  0  0  0  0  0  0
   -5.1298    0.0000    0.0000 C   0  0  0  0  0  0  0  0  0  0  0  0
   -5.9534    0.0000    0.0000 C   0  0  0  0  0  0  0  0  0  0  0  0
   -6.3237    0.0000    0.0000 C   0  0  0  0  0  0  0  0  0  0  0  0
   -5.8704    0.0000    0.0000 C   0  0  0  0  0  0  0  0  0  0  0  0
   -5.0468    0.0000    0.0000 C   0  0  0  0  0  0  0  0  0  0  0  0
   -4.6765    0.0000    0.0000 O   0  0  0  0  0  0  0  0  0  0  0  0
   -4.5934    0.0000    0.0000 C   0  0  0  0  0  0  0  0  0  0  0  0
   -4.9637    0.0000    0.0000 O   0  0  0  0  0  0  0  0  0  0  0  0
   -6.2407    0.0000    0.0000 O   0  0  0  0  0  0  0  0  0  0  0  0
   -7.1474    0.0000    0.0000 O   0  0  0  0  0  0  0  0  0  0  0  0
   -6.4067    0.0000    0.0000 O   0  0  0  0  0  0  0  0  0  0  0  0
   -4.0190    0.0000    0.0000 O   0  0  0  0  0  0  0  0  0  0  0  0
   -3.6487    0.0000    0.0000 C   0  0  0  0  0  0  0  0  0  0  0  0
   -4.1020    0.0000    0.0000 C   0  0  0  0  0  0  0  0  0  0  0  0
   -3.7317    0.0000    0.0000 C   0  0  0  0  0  0  0  0  0  0  0  0
   -2.9081    0.0000    0.0000 C   0  0  0  0  0  0  0  0  0  0  0  0
   -2.4548    0.0000    0.0000 C   0  0  0  0  0  0  0  0  0  0  0  0
   -2.8251    0.0000    0.0000 O   0  0  0  0  0  0  0  0  0  0  0  0
   -1.6312    0.0000    0.0000 C   0  0  0  0  0  0  0  0  0  0  0  0
   -2.5378    0.0000    0.0000 O   0  0  0  0  0  0  0  0  0  0  0  0
   -4.1850    0.0000    0.0000 O   0  0  0  0  0  0  0  0  0  0  0  0
   -4.9256    0.0000    0.0000 O   0  0  0  0  0  0  0  0  0  0  0  0
    0.4694    0.0000    0.0000 C   0  0  0  0  0  0  0  0  0  0  0  0
    3.0152    0.0000    0.0000 C   0  0  0  0  0  0  0  0  0  0  0  0
    4.2427    0.0000    0.0000 C   0  0  0  0  0  0  0  0  0  0  0  0
    5.2280    0.0000    0.0000 O   0  0  0  0  0  0  0  0  0  0  0  0
    6.0421    0.0000    0.0000 C   0  0  0  0  0  0  0  0  0  0  0  0
  1  2  1  0      
  2  3  1  0      
  3  4  1  0      
  4  5  1  0      
  5  6  1  0      
  6  7  1  0      
  7  8  1  0      
  8  9  1  0      
  5  9  1  0      
  8 10  1  0      
 10 11  1  0      
 11 12  1  0      
  7 12  1  0      
 12 13  1  0      
 13 14  1  0      
 14 15  1  0      
 15 16  1  0      
 11 16  1  0      
 16 17  1  0      
 17 18  1  0      
 18 19  2  0      
 19 20  1  0      
 15 20  1  0      
 20 21  1  0      
 21 22  1  0      
 22 23  1  0      
 23 24  1  0      
 19 24  1  0      
 23 25  1  0      
 25 26  1  0      
 26 27  1  0      
 27 28  1  0      
 28 29  1  0      
 29 30  1  0      
 30 31  1  0      
 26 31  1  0      
 30 32  1  0      
 32 33  1  0      
 29 34  1  0      
 28 35  1  0      
 35 36  1  0      
 36 37  1  0      
 37 38  1  0      
 38 39  1  0      
 39 40  1  0      
 40 41  1  0      
 36 41  1  0      
 40 42  1  0      
 42 43  1  0      
 39 44  1  0      
 38 45  1  0      
 37 46  1  0      
 27 47  1  0      
 47 48  1  0      
 48 49  1  0      
 49 50  1  0      
 50 51  1  0      
 51 52  1  0      
 52 53  1  0      
 48 53  1  0      
 52 54  1  0      
 51 55  1  0      
 50 56  1  0      
 49 57  1  0      
 20 58  1  0      
 12 59  1  0      
  6 60  1  0      
  5 61  1  0      
 61 62  1  0      
  2 62  1  0      
M  END
>  <Bioactivity>
Gracillin has anti-tumor activity, can induce cell cycle arrest, oxidative stress, and apoptosis in HL60 cells, and has the potential to be developed as an antitumor agent. Gracillin can be selected a
s lead compounds for the development of new drugs against I. multifiliis.

>  <CAS>
19083-00-2

>  <Col>
3

>  <Formula>
C45H72O17

>  <ID>
T3774

>  <Index>
792

>  <MOLENAME>
Gracillin

>  <MolWt>
885.05

>  <Pathways>
Cell cycle/ Checkpoint

>  <Plate>
PLATE 010

>  <QR code>
1151478021

>  <Receptor>
cell cycle arrest

>  <Reference>
1. Chen CR,et al.Gracillin induces apoptosis in HL60 human leukemic cell line via oxidative stress and cell cycle arrest of G1.Pharmazie. 2015 Mar;70(3):199-204.

>  <Row>
H

>  <SMILES>
CC1CCC2(C(C3C(O2)CC4C3(CCC5C4CC=C6C5(CCC(C6)OC7C(C(C(C(O7)CO)O)OC8C(C(C(C(O8)CO)O)O)O)OC9C(C(C(C(O9)C)O)O)O)C)C)C)OC1

>  <Target>
cell cycle arrest

>  <Weight>
10.3mg

$$$$
Lab-1.sdf
  ChemDraw05232018482D

 34 38  0  0  0  0  0  0  0  0999 V2000
   -3.8938    0.0000    0.0000 C   0  0  0  0  0  0  0  0  0  0  0  0
   -3.1186    0.0000    0.0000 C   0  0  0  0  0  0  0  0  0  0  0  0
   -3.5311    0.0000    0.0000 C   0  0  0  0  0  0  0  0  0  0  0  0
   -3.1186    0.0000    0.0000 C   0  0  0  0  0  0  0  0  0  0  0  0
   -2.2936    0.0000    0.0000 C   0  0  0  0  0  0  0  0  0  0  0  0
   -1.8811    0.0000    0.0000 C   0  0  0  0  0  0  0  0  0  0  0  0
   -1.0561    0.0000    0.0000 C   0  0  0  0  0  0  0  0  0  0  0  0
   -0.6436    0.0000    0.0000 C   0  0  0  0  0  0  0  0  0  0  0  0
   -1.0561    0.0000    0.0000 C   0  0  0  0  0  0  0  0  0  0  0  0
   -0.6436    0.0000    0.0000 C   0  0  0  0  0  0  0  0  0  0  0  0
    0.1813    0.0000    0.0000 C   0  0  0  0  0  0  0  0  0  0  0  0
    0.5938    0.0000    0.0000 C   0  0  0  0  0  0  0  0  0  0  0  0
    0.1813    0.0000    0.0000 C   0  0  0  0  0  0  0  0  0  0  0  0
    0.5938    0.0000    0.0000 C   0  0  0  0  0  0  0  0  0  0  0  0
    1.4188    0.0000    0.0000 C   0  0  0  0  0  0  0  0  0  0  0  0
    1.8313    0.0000    0.0000 C   0  0  0  0  0  0  0  0  0  0  0  0
    1.4188    0.0000    0.0000 C   0  0  0  0  0  0  0  0  0  0  0  0
    1.8313    0.0000    0.0000 C   0  0  0  0  0  0  0  0  0  0  0  0
    2.6563    0.0000    0.0000 C   0  0  0  0  0  0  0  0  0  0  0  0
    3.0688    0.0000    0.0000 C   0  0  0  0  0  0  0  0  0  0  0  0
    2.6563    0.0000    0.0000 C   0  0  0  0  0  0  0  0  0  0  0  0
    3.3560    0.0000    0.0000 C   0  0  0  0  0  0  0  0  0  0  0  0
    2.6851    0.0000    0.0000 C   0  0  0  0  0  0  0  0  0  0  0  0
    3.8938    0.0000    0.0000 O   0  0  0  0  0  0  0  0  0  0  0  0
    3.0688    0.0000    0.0000 O   0  0  0  0  0  0  0  0  0  0  0  0
    1.0063    0.0000    0.0000 C   0  0  0  0  0  0  0  0  0  0  0  0
   -0.2312    0.0000    0.0000 C   0  0  0  0  0  0  0  0  0  0  0  0
   -1.8811    0.0000    0.0000 C   0  0  0  0  0  0  0  0  0  0  0  0
   -2.2936    0.0000    0.0000 C   0  0  0  0  0  0  0  0  0  0  0  0
   -0.7298    0.0000    0.0000 C   0  0  0  0  0  0  0  0  0  0  0  0
   -2.7061    0.0000    0.0000 C   0  0  0  0  0  0  0  0  0  0  0  0
   -2.2936    0.0000    0.0000 O   0  0  0  0  0  0  0  0  0  0  0  0
   -3.5311    0.0000    0.0000 O   0  0  0  0  0  0  0  0  0  0  0  0
   -2.9753    0.0000    0.0000 C   0  0  0  0  0  0  0  0  0  0  0  0
  1  2  1  0      
  2  3  1  0      
  3  4  1  0      
  4  5  1  0      
  5  6  1  0      
  6  7  1  0      
  7  8  1  0      
  8  9  1  0      
  9 10  2  0      
 10 11  1  0      
 11 12  1  0      
 12 13  1  0      
  8 13  1  0      
 13 14  1  0      
 14 15  1  0      
 15 16  1  0      
 16 17  1  0      
 12 17  1  0      
 17 18  1  0      
 18 19  1  0      
 19 20  1  0      
 20 21  1  0      
 16 21  1  0      
 21 22  1  0      
 21 23  1  0      
 20 24  1  0      
 19 25  1  0      
 17 26  1  0      
 13 27  1  0      
  9 28  1  0      
  5 28  1  0      
 28 29  1  0      
  2 29  1  0      
  8 30  1  0      
  5 31  1  0      
 31 32  2  0      
 31 33  1  0      
  2 34  1  0      
M  END
>  <Bioactivity>
maslinic acid is a DNA polymerase B inhibitor

>  <CAS>
4373-41-5

>  <Col>
4

>  <Formula>
C30H48O4

>  <ID>
T3772

>  <Index>
793

>  <MOLENAME>
Maslinic acid

>  <MolWt>
472.71

>  <Pathways>
Others

>  <Plate>
PLATE 010

>  <QR code>
1151478022

>  <Receptor>
DNA polymerase B

>  <Reference>
1. Umehara K,et al.Studies on differentiation-inducing activities of triterpenes.Chem Pharm Bull (Tokyo). 1992 Feb;40(2):401-5.

>  <Row>
H

>  <SMILES>
CC1(CCC2(CCC3(C(=CCC4C3(CCC5C4(CC(C(C5(C)C)O)O)C)C)C2C1)C)C(=O)O)C

>  <Target>
DNA polymerase

>  <Weight>
10.2mg

$$$$
Lab-1.sdf
  ChemDraw05232018482D

 58 64  0  0  0  0  0  0  0  0999 V2000
   -4.9911    0.0000    0.0000 C   0  0  0  0  0  0  0  0  0  0  0  0
   -5.1344    0.0000    0.0000 C   0  0  0  0  0  0  0  0  0  0  0  0
   -5.5469    0.0000    0.0000 C   0  0  0  0  0  0  0  0  0  0  0  0
   -5.1344    0.0000    0.0000 C   0  0  0  0  0  0  0  0  0  0  0  0
   -4.3094    0.0000    0.0000 C   0  0  0  0  0  0  0  0  0  0  0  0
   -3.8969    0.0000    0.0000 C   0  0  0  0  0  0  0  0  0  0  0  0
   -3.0719    0.0000    0.0000 C   0  0  0  0  0  0  0  0  0  0  0  0
   -2.6594    0.0000    0.0000 C   0  0  0  0  0  0  0  0  0  0  0  0
   -3.0719    0.0000    0.0000 C   0  0  0  0  0  0  0  0  0  0  0  0
   -2.6594    0.0000    0.0000 C   0  0  0  0  0  0  0  0  0  0  0  0
   -1.8344    0.0000    0.0000 C   0  0  0  0  0  0  0  0  0  0  0  0
   -1.4219    0.0000    0.0000 C   0  0  0  0  0  0  0  0  0  0  0  0
   -1.8344    0.0000    0.0000 C   0  0  0  0  0  0  0  0  0  0  0  0
   -1.4219    0.0000    0.0000 C   0  0  0  0  0  0  0  0  0  0  0  0
   -0.5969    0.0000    0.0000 C   0  0  0  0  0  0  0  0  0  0  0  0
   -0.1844    0.0000    0.0000 C   0  0  0  0  0  0  0  0  0  0  0  0
   -0.5969    0.0000    0.0000 C   0  0  0  0  0  0  0  0  0  0  0  0
   -0.1844    0.0000    0.0000 C   0  0  0  0  0  0  0  0  0  0  0  0
    0.6406    0.0000    0.0000 C   0  0  0  0  0  0  0  0  0  0  0  0
    1.0531    0.0000    0.0000 C   0  0  0  0  0  0  0  0  0  0  0  0
    0.6406    0.0000    0.0000 C   0  0  0  0  0  0  0  0  0  0  0  0
    1.3403    0.0000    0.0000 C   0  0  0  0  0  0  0  0  0  0  0  0
    0.6694    0.0000    0.0000 C   0  0  0  0  0  0  0  0  0  0  0  0
    1.3979    0.0000    0.0000 O   0  0  0  0  0  0  0  0  0  0  0  0
    1.8781    0.0000    0.0000 O   0  0  0  0  0  0  0  0  0  0  0  0
    2.2906    0.0000    0.0000 C   0  0  0  0  0  0  0  0  0  0  0  0
    1.8781    0.0000    0.0000 C   0  0  0  0  0  0  0  0  0  0  0  0
    2.2906    0.0000    0.0000 O   0  0  0  0  0  0  0  0  0  0  0  0
    3.1156    0.0000    0.0000 C   0  0  0  0  0  0  0  0  0  0  0  0
    3.5281    0.0000    0.0000 C   0  0  0  0  0  0  0  0  0  0  0  0
    3.1156    0.0000    0.0000 C   0  0  0  0  0  0  0  0  0  0  0  0
    3.5281    0.0000    0.0000 O   0  0  0  0  0  0  0  0  0  0  0  0
    4.3531    0.0000    0.0000 O   0  0  0  0  0  0  0  0  0  0  0  0
    3.5281    0.0000    0.0000 O   0  0  0  0  0  0  0  0  0  0  0  0
    4.3531    0.0000    0.0000 C   0  0  0  0  0  0  0  0  0  0  0  0
    4.7656    0.0000    0.0000 C   0  0  0  0  0  0  0  0  0  0  0  0
    5.5906    0.0000    0.0000 C   0  0  0  0  0  0  0  0  0  0  0  0
    6.0031    0.0000    0.0000 C   0  0  0  0  0  0  0  0  0  0  0  0
    5.5906    0.0000    0.0000 C   0  0  0  0  0  0  0  0  0  0  0  0
    4.7656    0.0000    0.0000 O   0  0  0  0  0  0  0  0  0  0  0  0
    6.0031    0.0000    0.0000 C   0  0  0  0  0  0  0  0  0  0  0  0
    6.8281    0.0000    0.0000 O   0  0  0  0  0  0  0  0  0  0  0  0
    6.8281    0.0000    0.0000 O   0  0  0  0  0  0  0  0  0  0  0  0
    6.0031    0.0000    0.0000 O   0  0  0  0  0  0  0  0  0  0  0  0
    4.3531    0.0000    0.0000 O   0  0  0  0  0  0  0  0  0  0  0  0
    1.0531    0.0000    0.0000 O   0  0  0  0  0  0  0  0  0  0  0  0
   -1.0094    0.0000    0.0000 C   0  0  0  0  0  0  0  0  0  0  0  0
   -2.2469    0.0000    0.0000 C   0  0  0  0  0  0  0  0  0  0  0  0
   -3.8969    0.0000    0.0000 C   0  0  0  0  0  0  0  0  0  0  0  0
   -4.3094    0.0000    0.0000 C   0  0  0  0  0  0  0  0  0  0  0  0
   -2.7456    0.0000    0.0000 C   0  0  0  0  0  0  0  0  0  0  0  0
   -4.7219    0.0000    0.0000 C   0  0  0  0  0  0  0  0  0  0  0  0
   -5.5469    0.0000    0.0000 O   0  0  0  0  0  0  0  0  0  0  0  0
   -4.3094    0.0000    0.0000 O   0  0  0  0  0  0  0  0  0  0  0  0
   -5.9096    0.0000    0.0000 C   0  0  0  0  0  0  0  0  0  0  0  0
   -6.5416    0.0000    0.0000 O   0  0  0  0  0  0  0  0  0  0  0  0
   -6.0529    0.0000    0.0000 O   0  0  0  0  0  0  0  0  0  0  0  0
   -6.8281    0.0000    0.0000 C   0  0  0  0  0  0  0  0  0  0  0  0
  1  2  1  0      
  2  3  1  0      
  3  4  1  0      
  4  5  1  0      
  5  6  1  0      
  6  7  1  0      
  7  8  1  0      
  8  9  1  0      
  9 10  2  0      
 10 11  1  0      
 11 12  1  0      
 12 13  1  0      
  8 13  1  0      
 13 14  1  0      
 14 15  1  0      
 15 16  1  0      
 16 17  1  0      
 12 17  1  0      
 17 18  1  0      
 18 19  1  0      
 19 20  1  0      
 20 21  1  0      
 16 21  1  0      
 21 22  1  0      
 21 23  1  0      
 23 24  1  0      
 20 25  1  0      
 25 26  1  0      
 26 27  1  0      
 27 28  1  0      
 28 29  1  0      
 29 30  1  0      
 30 31  1  0      
 26 31  1  0      
 31 32  1  0      
 30 33  1  0      
 29 34  1  0      
 34 35  1  0      
 35 36  1  0      
 36 37  1  0      
 37 38  1  0      
 38 39  1  0      
 39 40  1  0      
 35 40  1  0      
 39 41  1  0      
 41 42  1  0      
 38 43  1  0      
 37 44  1  0      
 36 45  1  0      
 19 46  1  0      
 17 47  1  0      
 13 48  1  0      
  9 49  1  0      
  5 49  1  0      
 49 50  1  0      
  2 50  1  0      
  8 51  1  0      
  5 52  1  0      
 52 53  2  0      
 52 54  1  0      
  2 55  1  0      
 55 56  2  0      
 55 57  1  0      
 57 58  1  0      
M  END
>  <Bioactivity>
Esculentoside A may be useful for the treatment of autoimmune disease through modulation on T cell-mediated adaptive immunity. Esculentoside A may play significant roles in the treatment of BXSB mice 
through modulation of inflammatory cytokines, inhibition of renal cell proliferation and induction of apoptosis.Esculentoside A has anti-inflammatory activity , can suppress inflammatory responses in
 LPS-induced ALI through inhibition of the nuclear factor kappa B and mitogen activated protein kinase signaling pathways.

>  <CAS>
65497-07-6

>  <Col>
5

>  <Formula>
C42H66O16

>  <ID>
T3877

>  <Index>
794

>  <MOLENAME>
Esculentoside A

>  <MolWt>
826.96

>  <Pathways>
Immunology/ Inflammation; Jak/STAT

>  <Plate>
PLATE 010

>  <QR code>
1151478023

>  <Receptor>
NF-¦ÊB

>  <Reference>
1. Zhong WT,et al. Protective effect of esculentoside A on lipopolysaccharide-induced acute lung injury in mice. J Surg Res. 2013 Nov;185(1):364-72.

>  <Row>
H

>  <SMILES>
CC1(CCC2(CCC3(C(=CCC4C3(CCC5C4(CC(C(C5(C)CO)OC6COC(C(C6O)O)OC7C(C(C(C(O7)CO)O)O)O)O)C)C)C2C1)C)C(=O)O)C(=O)OC

>  <Target>
NF-¦ÊB

>  <Weight>
10.4mg

$$$$
Lab-1.sdf
  ChemDraw05232018482D

 48 53  0  0  0  0  0  0  0  0999 V2000
   -5.1313    0.0000    0.0000 C   0  0  0  0  0  0  0  0  0  0  0  0
   -4.3561    0.0000    0.0000 C   0  0  0  0  0  0  0  0  0  0  0  0
   -4.7686    0.0000    0.0000 C   0  0  0  0  0  0  0  0  0  0  0  0
   -4.3561    0.0000    0.0000 C   0  0  0  0  0  0  0  0  0  0  0  0
   -3.5311    0.0000    0.0000 C   0  0  0  0  0  0  0  0  0  0  0  0
   -3.1186    0.0000    0.0000 C   0  0  0  0  0  0  0  0  0  0  0  0
   -2.2936    0.0000    0.0000 C   0  0  0  0  0  0  0  0  0  0  0  0
   -1.8811    0.0000    0.0000 C   0  0  0  0  0  0  0  0  0  0  0  0
   -2.2936    0.0000    0.0000 C   0  0  0  0  0  0  0  0  0  0  0  0
   -1.8811    0.0000    0.0000 C   0  0  0  0  0  0  0  0  0  0  0  0
   -1.0561    0.0000    0.0000 C   0  0  0  0  0  0  0  0  0  0  0  0
   -0.6436    0.0000    0.0000 C   0  0  0  0  0  0  0  0  0  0  0  0
   -1.0561    0.0000    0.0000 C   0  0  0  0  0  0  0  0  0  0  0  0
   -0.6436    0.0000    0.0000 C   0  0  0  0  0  0  0  0  0  0  0  0
    0.1813    0.0000    0.0000 C   0  0  0  0  0  0  0  0  0  0  0  0
    0.5938    0.0000    0.0000 C   0  0  0  0  0  0  0  0  0  0  0  0
    0.1813    0.0000    0.0000 C   0  0  0  0  0  0  0  0  0  0  0  0
    0.5938    0.0000    0.0000 C   0  0  0  0  0  0  0  0  0  0  0  0
    1.4188    0.0000    0.0000 C   0  0  0  0  0  0  0  0  0  0  0  0
    1.8313    0.0000    0.0000 C   0  0  0  0  0  0  0  0  0  0  0  0
    1.4188    0.0000    0.0000 C   0  0  0  0  0  0  0  0  0  0  0  0
    1.4476    0.0000    0.0000 C   0  0  0  0  0  0  0  0  0  0  0  0
    2.1185    0.0000    0.0000 C   0  0  0  0  0  0  0  0  0  0  0  0
    2.8469    0.0000    0.0000 O   0  0  0  0  0  0  0  0  0  0  0  0
    2.0897    0.0000    0.0000 O   0  0  0  0  0  0  0  0  0  0  0  0
    2.6563    0.0000    0.0000 O   0  0  0  0  0  0  0  0  0  0  0  0
    3.0688    0.0000    0.0000 C   0  0  0  0  0  0  0  0  0  0  0  0
    3.8938    0.0000    0.0000 C   0  0  0  0  0  0  0  0  0  0  0  0
    4.3063    0.0000    0.0000 C   0  0  0  0  0  0  0  0  0  0  0  0
    3.8938    0.0000    0.0000 C   0  0  0  0  0  0  0  0  0  0  0  0
    3.0688    0.0000    0.0000 C   0  0  0  0  0  0  0  0  0  0  0  0
    2.6563    0.0000    0.0000 O   0  0  0  0  0  0  0  0  0  0  0  0
    2.6563    0.0000    0.0000 C   0  0  0  0  0  0  0  0  0  0  0  0
    3.0688    0.0000    0.0000 O   0  0  0  0  0  0  0  0  0  0  0  0
    4.3063    0.0000    0.0000 O   0  0  0  0  0  0  0  0  0  0  0  0
    5.1313    0.0000    0.0000 O   0  0  0  0  0  0  0  0  0  0  0  0
    4.3063    0.0000    0.0000 O   0  0  0  0  0  0  0  0  0  0  0  0
    1.8313    0.0000    0.0000 O   0  0  0  0  0  0  0  0  0  0  0  0
   -0.2311    0.0000    0.0000 C   0  0  0  0  0  0  0  0  0  0  0  0
   -0.9698    0.0000    0.0000 C   0  0  0  0  0  0  0  0  0  0  0  0
   -3.1186    0.0000    0.0000 C   0  0  0  0  0  0  0  0  0  0  0  0
   -3.5311    0.0000    0.0000 C   0  0  0  0  0  0  0  0  0  0  0  0
   -1.4686    0.0000    0.0000 C   0  0  0  0  0  0  0  0  0  0  0  0
   -1.8811    0.0000    0.0000 O   0  0  0  0  0  0  0  0  0  0  0  0
   -3.9436    0.0000    0.0000 C   0  0  0  0  0  0  0  0  0  0  0  0
   -4.7686    0.0000    0.0000 O   0  0  0  0  0  0  0  0  0  0  0  0
   -3.5311    0.0000    0.0000 O   0  0  0  0  0  0  0  0  0  0  0  0
   -4.2128    0.0000    0.0000 C   0  0  0  0  0  0  0  0  0  0  0  0
  1  2  1  0      
  2  3  1  0      
  3  4  1  0      
  4  5  1  0      
  5  6  1  0      
  6  7  1  0      
  7  8  1  0      
  8  9  1  0      
  9 10  2  0      
 10 11  1  0      
 11 12  1  0      
 12 13  1  0      
  8 13  1  0      
 13 14  1  0      
 14 15  1  0      
 15 16  1  0      
 16 17  1  0      
 12 17  1  0      
 17 18  1  0      
 18 19  1  0      
 19 20  1  0      
 20 21  1  0      
 16 21  1  0      
 21 22  1  0      
 21 23  1  0      
 23 24  2  0      
 23 25  1  0      
 20 26  1  0      
 26 27  1  0      
 27 28  1  0      
 28 29  1  0      
 29 30  1  0      
 30 31  1  0      
 31 32  1  0      
 27 32  1  0      
 31 33  1  0      
 33 34  1  0      
 30 35  1  0      
 29 36  1  0      
 28 37  1  0      
 19 38  1  0      
 17 39  1  0      
 13 40  1  0      
  9 41  1  0      
  5 41  1  0      
 41 42  1  0      
  2 42  1  0      
  8 43  1  0      
 43 44  1  0      
  5 45  1  0      
 45 46  2  0      
 45 47  1  0      
  2 48  1  0      
M  END
>  <Bioactivity>
Tenuifolin has no inherent toxicity to either the transfected or wild type cells at the effective concentrations, it inhibits amyloid-¦Â secretion in vitro.

>  <CAS>
20183-47-5

>  <Col>
6

>  <Formula>
C36H56O12

>  <ID>
T3769

>  <Index>
795

>  <MOLENAME>
Tenuifolin

>  <MolWt>
680.37

>  <Pathways>
others

>  <Plate>
PLATE 010

>  <QR code>
1151478024

>  <Receptor>
others

>  <Reference>
1. Liu YM,et al.Tenuifolin, a secondary saponin from hydrolysates of polygalasaponins, counteracts the neurotoxicity induced by A¦Â25-35 peptides in vitro and in vivo.Pharmacol Biochem Behav. 2015 Ja
n;128:14-22.

>  <Row>
H

>  <SMILES>
CC1(CCC2(CCC3(C(=CCC4C3(CCC5C4(CC(C(C5(C)C(=O)O)OC6C(C(C(C(O6)CO)O)O)O)O)C)C)C2C1)CO)C(=O)O)C

>  <Target>
others

>  <Weight>
10.2mg

$$$$
Lab-1.sdf
  ChemDraw05232018482D

 26 28  0  0  0  0  0  0  0  0999 V2000
   -2.5006    0.0000    0.0000 C   0  0  0  0  0  0  0  0  0  0  0  0
   -2.5006    0.0000    0.0000 O   0  0  0  0  0  0  0  0  0  0  0  0
   -1.7862    0.0000    0.0000 C   0  0  0  0  0  0  0  0  0  0  0  0
   -1.7862    0.0000    0.0000 C   0  0  0  0  0  0  0  0  0  0  0  0
   -1.0717    0.0000    0.0000 C   0  0  0  0  0  0  0  0  0  0  0  0
   -0.3572    0.0000    0.0000 C   0  0  0  0  0  0  0  0  0  0  0  0
   -0.3572    0.0000    0.0000 C   0  0  0  0  0  0  0  0  0  0  0  0
   -1.0717    0.0000    0.0000 C   0  0  0  0  0  0  0  0  0  0  0  0
    0.3571    0.0000    0.0000 C   0  0  0  0  0  0  0  0  0  0  0  0
    1.0716    0.0000    0.0000 C   0  0  0  0  0  0  0  0  0  0  0  0
    1.0716    0.0000    0.0000 C   0  0  0  0  0  0  0  0  0  0  0  0
    1.7861    0.0000    0.0000 O   0  0  0  0  0  0  0  0  0  0  0  0
    0.3571    0.0000    0.0000 O   0  0  0  0  0  0  0  0  0  0  0  0
   -1.0717    0.0000    0.0000 O   0  0  0  0  0  0  0  0  0  0  0  0
   -0.3572    0.0000    0.0000 C   0  0  0  0  0  0  0  0  0  0  0  0
   -0.3572    0.0000    0.0000 C   0  0  0  0  0  0  0  0  0  0  0  0
    0.3571    0.0000    0.0000 C   0  0  0  0  0  0  0  0  0  0  0  0
    1.0716    0.0000    0.0000 C   0  0  0  0  0  0  0  0  0  0  0  0
    1.0716    0.0000    0.0000 C   0  0  0  0  0  0  0  0  0  0  0  0
    0.3571    0.0000    0.0000 O   0  0  0  0  0  0  0  0  0  0  0  0
    1.7861    0.0000    0.0000 C   0  0  0  0  0  0  0  0  0  0  0  0
    2.5006    0.0000    0.0000 O   0  0  0  0  0  0  0  0  0  0  0  0
    1.7861    0.0000    0.0000 O   0  0  0  0  0  0  0  0  0  0  0  0
    0.3571    0.0000    0.0000 O   0  0  0  0  0  0  0  0  0  0  0  0
   -1.0717    0.0000    0.0000 O   0  0  0  0  0  0  0  0  0  0  0  0
   -2.5006    0.0000    0.0000 O   0  0  0  0  0  0  0  0  0  0  0  0
  1  2  1  0      
  2  3  1  0      
  3  4  2  0      
  4  5  1  0      
  5  6  2  0      
  6  7  1  0      
  7  8  2  0      
  3  8  1  0      
  7  9  1  0      
  9 10  2  0      
 10 11  1  0      
 11 12  2  0      
 11 13  1  0      
  6 13  1  0      
  5 14  1  0      
 14 15  1  0      
 15 16  1  0      
 16 17  1  0      
 17 18  1  0      
 18 19  1  0      
 19 20  1  0      
 15 20  1  0      
 19 21  1  0      
 21 22  1  0      
 18 23  1  0      
 17 24  1  0      
 16 25  1  0      
  4 26  1  0      
M  END
>  <Bioactivity>
Fraxin protects HUVECs from oxidative stress.Fraxin enhances urate excretion partly by inhibiting mURAT1 or mGLUT9 in kidney of hyperuricemic mice.

>  <CAS>
524-30-1

>  <Col>
7

>  <Formula>
C16H18O10

>  <ID>
T3783

>  <Index>
796

>  <MOLENAME>
Fraxin

>  <MolWt>
370.31

>  <Pathways>
Others

>  <Plate>
PLATE 010

>  <QR code>
1151478025

>  <Receptor>
mURAT1 or mGLUT9

>  <Reference>
1. Whang WK,ET AL. Natural compounds,fraxin and chemicals structurally related to fraxin protect cells from oxidative stress. Exp Mol Med. 2005 Oct 31;37(5):436-46.

>  <Row>
H

>  <SMILES>
COC1=C(C(=C2C(=C1)C=CC(=O)O2)OC3C(C(C(C(O3)CO)O)O)O)O

>  <Target>
Others

>  <Weight>
10.3mg

$$$$
Lab-1.sdf
  ChemDraw05232018482D

 34 37  0  0  0  0  0  0  0  0999 V2000
    0.5682    0.0000    0.0000 C   0  0  0  0  0  0  0  0  0  0  0  0
    0.0379    0.0000    0.0000 C   0  0  0  0  0  0  0  0  0  0  0  0
   -0.6766    0.0000    0.0000 C   0  0  0  0  0  0  0  0  0  0  0  0
   -0.6766    0.0000    0.0000 C   0  0  0  0  0  0  0  0  0  0  0  0
    0.0379    0.0000    0.0000 C   0  0  0  0  0  0  0  0  0  0  0  0
    0.7524    0.0000    0.0000 C   0  0  0  0  0  0  0  0  0  0  0  0
    0.7524    0.0000    0.0000 C   0  0  0  0  0  0  0  0  0  0  0  0
    1.4668    0.0000    0.0000 C   0  0  0  0  0  0  0  0  0  0  0  0
    2.1813    0.0000    0.0000 C   0  0  0  0  0  0  0  0  0  0  0  0
    2.1813    0.0000    0.0000 C   0  0  0  0  0  0  0  0  0  0  0  0
    2.8958    0.0000    0.0000 C   0  0  0  0  0  0  0  0  0  0  0  0
    1.4668    0.0000    0.0000 C   0  0  0  0  0  0  0  0  0  0  0  0
    1.4668    0.0000    0.0000 C   0  0  0  0  0  0  0  0  0  0  0  0
    2.1813    0.0000    0.0000 C   0  0  0  0  0  0  0  0  0  0  0  0
    2.1813    0.0000    0.0000 C   0  0  0  0  0  0  0  0  0  0  0  0
    2.8488    0.0000    0.0000 C   0  0  0  0  0  0  0  0  0  0  0  0
    2.5938    0.0000    0.0000 C   0  0  0  0  0  0  0  0  0  0  0  0
    1.7688    0.0000    0.0000 O   0  0  0  0  0  0  0  0  0  0  0  0
    1.5139    0.0000    0.0000 C   0  0  0  0  0  0  0  0  0  0  0  0
    0.7293    0.0000    0.0000 O   0  0  0  0  0  0  0  0  0  0  0  0
    0.7524    0.0000    0.0000 C   0  0  0  0  0  0  0  0  0  0  0  0
   -0.4924    0.0000    0.0000 C   0  0  0  0  0  0  0  0  0  0  0  0
   -0.2102    0.0000    0.0000 O   0  0  0  0  0  0  0  0  0  0  0  0
   -0.7405    0.0000    0.0000 C   0  0  0  0  0  0  0  0  0  0  0  0
   -1.5530    0.0000    0.0000 C   0  0  0  0  0  0  0  0  0  0  0  0
   -2.0833    0.0000    0.0000 C   0  0  0  0  0  0  0  0  0  0  0  0
   -1.8011    0.0000    0.0000 C   0  0  0  0  0  0  0  0  0  0  0  0
   -0.9887    0.0000    0.0000 C   0  0  0  0  0  0  0  0  0  0  0  0
   -0.4584    0.0000    0.0000 O   0  0  0  0  0  0  0  0  0  0  0  0
   -0.7065    0.0000    0.0000 C   0  0  0  0  0  0  0  0  0  0  0  0
   -1.2368    0.0000    0.0000 O   0  0  0  0  0  0  0  0  0  0  0  0
   -2.3314    0.0000    0.0000 O   0  0  0  0  0  0  0  0  0  0  0  0
   -2.8958    0.0000    0.0000 O   0  0  0  0  0  0  0  0  0  0  0  0
   -1.8352    0.0000    0.0000 O   0  0  0  0  0  0  0  0  0  0  0  0
  1  2  1  0      
  2  3  1  0      
  3  4  1  0      
  4  5  1  0      
  5  6  1  0      
  6  7  1  0      
  2  7  1  0      
  7  8  1  0      
  8  9  1  0      
  9 10  1  0      
 10 11  2  0      
 10 12  1  0      
  6 12  1  0      
 12 13  1  0      
 13 14  1  0      
 14 15  1  0      
 15 16  2  0      
 16 17  1  0      
 17 18  1  0      
 18 19  1  0      
 15 19  1  0      
 19 20  2  0      
  6 21  1  0      
  2 22  1  0      
 22 23  1  0      
 23 24  1  0      
 24 25  1  0      
 25 26  1  0      
 26 27  1  0      
 27 28  1  0      
 28 29  1  0      
 24 29  1  0      
 28 30  1  0      
 30 31  1  0      
 27 32  1  0      
 26 33  1  0      
 25 34  1  0      
M  END
>  <Bioactivity>
Neoandrographolide has potent hypolipidemic effect and protects the cardiovascular without significant liver damage.Neoandrographolide has anti-inflammatory effect, might result from inhibition of iN
OS and COX-2 expression through inhibiting p38 MAPKs activation.Neoandrographolide as chemosensitizer in S-Jurkat and X chromosome-linked inhibitor of apoptosis protein (XIAP)-overexpressing Jurkat c
ells, a model for chemoresistance.

>  <CAS>
27215-14-1

>  <Col>
8

>  <Formula>
C26H40O8

>  <ID>
T3884

>  <Index>
797

>  <MOLENAME>
Neoandrographolide

>  <MolWt>
480.598

>  <Pathways>
MAPK

>  <Plate>
PLATE 010

>  <QR code>
1151478026

>  <Receptor>
 Inos; COX-2

>  <Reference>
1. Yang T,et al. Hypolipidemic effects of andrographolide and neoandrographolide in mice and rats. Phytother Res. 2013 Apr;27(4):618-23. 

>  <Row>
H

>  <SMILES>
CC1(CCCC2(C1CCC(=C)C2CCC3=CCOC3=O)C)COC4C(C(C(C(O4)CO)O)O)O

>  <Target>
 Inos; COX-2

>  <Weight>
10.2mg

$$$$
Lab-1.sdf
  ChemDraw05232018482D

 14 14  0  0  0  0  0  0  0  0999 V2000
   -1.4289    0.0000    0.0000 C   0  0  0  0  0  0  0  0  0  0  0  0
   -0.7145    0.0000    0.0000 C   0  0  0  0  0  0  0  0  0  0  0  0
   -0.7145    0.0000    0.0000 O   0  0  0  0  0  0  0  0  0  0  0  0
    0.0000    0.0000    0.0000 C   0  0  0  0  0  0  0  0  0  0  0  0
    0.7145    0.0000    0.0000 O   0  0  0  0  0  0  0  0  0  0  0  0
    0.0000    0.0000    0.0000 C   0  0  0  0  0  0  0  0  0  0  0  0
    0.7145    0.0000    0.0000 C   0  0  0  0  0  0  0  0  0  0  0  0
    0.7145    0.0000    0.0000 C   0  0  0  0  0  0  0  0  0  0  0  0
    0.0000    0.0000    0.0000 C   0  0  0  0  0  0  0  0  0  0  0  0
   -0.7145    0.0000    0.0000 C   0  0  0  0  0  0  0  0  0  0  0  0
   -0.7145    0.0000    0.0000 C   0  0  0  0  0  0  0  0  0  0  0  0
   -1.4289    0.0000    0.0000 O   0  0  0  0  0  0  0  0  0  0  0  0
    0.0000    0.0000    0.0000 O   0  0  0  0  0  0  0  0  0  0  0  0
    1.4289    0.0000    0.0000 O   0  0  0  0  0  0  0  0  0  0  0  0
  1  2  1  0      
  2  3  1  0      
  3  4  1  0      
  4  5  2  0      
  4  6  1  0      
  6  7  2  0      
  7  8  1  0      
  8  9  2  0      
  9 10  1  0      
 10 11  2  0      
  6 11  1  0      
 10 12  1  0      
  9 13  1  0      
  8 14  1  0      
M  END
>  <Bioactivity>
Ethyl gallate obviously decreases cell proliferation in MDA-MB-231 and MCF-7 cells in a dose- and time-dependent manner, exhibits cytotoxicity in a dose-dependent manner.  Ethyl gallate can inhibit th
e abilities of invasion of breast cancer in vitro by inhibiting the mRNA levels of MMP-9/MMP-2, phosphorylation of Akt and protein expression of NF-¦ÊB and  inhibits hydrogen peroxide signaling, may r
epresent an alternative class of vasopressors for use in septic shock. Also, Ethyl gallate suppresses proliferation and invasion in human breast cancer cells by modulating the PI3K/Akt pathway, which 
may contribute to inhibiting their downstream targets such as NF-¦ÊB p-65, Bcl-2/Bax, and mRNA levels of MMP-2 and MMP-9 in breast cancer cells, could be used as potential antioxidants with safe thera
peutic application in cancer chemotherapy.

>  <CAS>
831-61-8

>  <Col>
9

>  <Formula>
C9H10O5

>  <ID>
T3729

>  <Index>
798

>  <MOLENAME>
Ethyl gallate

>  <MolWt>
198.17

>  <Pathways>
PI3K/Akt

>  <Plate>
PLATE 010

>  <QR code>
1151478027

>  <Receptor>
MMP-9/MMP-2, Akt, NF-¦ÊB

>  <Reference>
1. Cui H, et al. Oncol Rep. Ethyl gallate suppresses proliferation and invasion in human breast cancer cells via Akt-NF-¦ÊB signaling. 2015 Mar;33(3):1284-90.

>  <Row>
H

>  <SMILES>
CCOC(=O)C1=CC(=C(C(=C1)O)O)O

>  <Target>
MMP-9/MMP-2, Akt, NF-¦ÊB inhibitor

>  <Weight>
10.4mg

$$$$
Lab-1.sdf
  ChemDraw05232018482D

 41 45  0  0  0  0  0  0  0  0999 V2000
    6.4441    0.0000    0.0000 C   0  0  0  0  0  0  0  0  0  0  0  0
    5.6268    0.0000    0.0000 C   0  0  0  0  0  0  0  0  0  0  0  0
    5.1204    0.0000    0.0000 C   0  0  0  0  0  0  0  0  0  0  0  0
    4.3032    0.0000    0.0000 C   0  0  0  0  0  0  0  0  0  0  0  0
    3.7968    0.0000    0.0000 C   0  0  0  0  0  0  0  0  0  0  0  0
    2.9796    0.0000    0.0000 C   0  0  0  0  0  0  0  0  0  0  0  0
    2.6687    0.0000    0.0000 C   0  0  0  0  0  0  0  0  0  0  0  0
    2.4732    0.0000    0.0000 C   0  0  0  0  0  0  0  0  0  0  0  0
    2.7025    0.0000    0.0000 C   0  0  0  0  0  0  0  0  0  0  0  0
    2.0197    0.0000    0.0000 C   0  0  0  0  0  0  0  0  0  0  0  0
    1.3682    0.0000    0.0000 C   0  0  0  0  0  0  0  0  0  0  0  0
    1.6485    0.0000    0.0000 C   0  0  0  0  0  0  0  0  0  0  0  0
    1.1167    0.0000    0.0000 C   0  0  0  0  0  0  0  0  0  0  0  0
    0.3046    0.0000    0.0000 C   0  0  0  0  0  0  0  0  0  0  0  0
    0.0243    0.0000    0.0000 C   0  0  0  0  0  0  0  0  0  0  0  0
    0.5561    0.0000    0.0000 C   0  0  0  0  0  0  0  0  0  0  0  0
    0.2758    0.0000    0.0000 C   0  0  0  0  0  0  0  0  0  0  0  0
   -0.5363    0.0000    0.0000 C   0  0  0  0  0  0  0  0  0  0  0  0
   -1.0681    0.0000    0.0000 C   0  0  0  0  0  0  0  0  0  0  0  0
   -0.7878    0.0000    0.0000 C   0  0  0  0  0  0  0  0  0  0  0  0
   -1.3196    0.0000    0.0000 C   0  0  0  0  0  0  0  0  0  0  0  0
   -2.1318    0.0000    0.0000 C   0  0  0  0  0  0  0  0  0  0  0  0
   -2.4121    0.0000    0.0000 C   0  0  0  0  0  0  0  0  0  0  0  0
   -1.8802    0.0000    0.0000 C   0  0  0  0  0  0  0  0  0  0  0  0
   -3.2243    0.0000    0.0000 O   0  0  0  0  0  0  0  0  0  0  0  0
   -3.7561    0.0000    0.0000 C   0  0  0  0  0  0  0  0  0  0  0  0
   -3.4758    0.0000    0.0000 C   0  0  0  0  0  0  0  0  0  0  0  0
   -4.0076    0.0000    0.0000 C   0  0  0  0  0  0  0  0  0  0  0  0
   -4.8197    0.0000    0.0000 C   0  0  0  0  0  0  0  0  0  0  0  0
   -5.1000    0.0000    0.0000 C   0  0  0  0  0  0  0  0  0  0  0  0
   -4.5682    0.0000    0.0000 O   0  0  0  0  0  0  0  0  0  0  0  0
   -5.9122    0.0000    0.0000 C   0  0  0  0  0  0  0  0  0  0  0  0
   -6.4441    0.0000    0.0000 O   0  0  0  0  0  0  0  0  0  0  0  0
   -5.3515    0.0000    0.0000 O   0  0  0  0  0  0  0  0  0  0  0  0
   -3.7273    0.0000    0.0000 O   0  0  0  0  0  0  0  0  0  0  0  0
   -2.6637    0.0000    0.0000 O   0  0  0  0  0  0  0  0  0  0  0  0
   -0.5075    0.0000    0.0000 C   0  0  0  0  0  0  0  0  0  0  0  0
    2.0085    0.0000    0.0000 C   0  0  0  0  0  0  0  0  0  0  0  0
    5.4313    0.0000    0.0000 C   0  0  0  0  0  0  0  0  0  0  0  0
    4.9249    0.0000    0.0000 C   0  0  0  0  0  0  0  0  0  0  0  0
    6.2486    0.0000    0.0000 C   0  0  0  0  0  0  0  0  0  0  0  0
  1  2  1  0      
  2  3  1  0      
  3  4  1  0      
  4  5  1  0      
  5  6  1  0      
  6  7  1  0      
  6  8  1  0      
  8  9  1  0      
  9 10  1  0      
 10 11  1  0      
 11 12  1  0      
  8 12  1  0      
 12 13  1  0      
 13 14  1  0      
 14 15  1  0      
 15 16  1  0      
 11 16  1  0      
 16 17  1  0      
 17 18  1  0      
 18 19  2  0      
 19 20  1  0      
 15 20  1  0      
 20 21  1  0      
 21 22  1  0      
 22 23  1  0      
 23 24  1  0      
 19 24  1  0      
 23 25  1  0      
 25 26  1  0      
 26 27  1  0      
 27 28  1  0      
 28 29  1  0      
 29 30  1  0      
 30 31  1  0      
 26 31  1  0      
 30 32  1  0      
 32 33  1  0      
 29 34  1  0      
 28 35  1  0      
 27 36  1  0      
 20 37  1  0      
 12 38  1  0      
  3 39  1  0      
 39 40  1  0      
 39 41  1  0      
M  END
>  <Bioactivity>
Daucosterol has proliferation-enhancing activity, may be involved in IGF1-AKT pathway.Daucosterol has efficient and inexpensive neuroprotectant effect, to contribute to IGF1-like activity, could be p
otentially developed as a medicine for ischemic stroke treatment.

>  <CAS>
474-58-8

>  <Col>
10

>  <Formula>
C35H60O6

>  <ID>
T3871

>  <Index>
799

>  <MOLENAME>
Eleutheroside A

>  <MolWt>
576.859

>  <Pathways>
Others

>  <Plate>
PLATE 010

>  <QR code>
1151478028

>  <Receptor>
¦Á-glucosidase

>  <Reference>
1. Jiang LH,et al. Daucosterol promotes the proliferation of neural stem cells. J Steroid Biochem Mol Biol. 2014 Mar;140:90-9.

>  <Row>
H

>  <SMILES>
CCC(CCC(C)C1CCC2C1(CCC3C2CC=C4C3(CCC(C4)OC5C(C(C(C(O5)CO)O)O)O)C)C)C(C)C

>  <Target>
¦Á-glucosidase inhibitors

>  <Weight>
10.2mg

$$$$
Lab-1.sdf
  ChemDraw05232018482D

 13 13  0  0  0  0  0  0  0  0999 V2000
    0.7145    0.0000    0.0000 C   0  0  0  0  0  0  0  0  0  0  0  0
    0.7145    0.0000    0.0000 C   0  0  0  0  0  0  0  0  0  0  0  0
    0.0000    0.0000    0.0000 C   0  0  0  0  0  0  0  0  0  0  0  0
   -0.7145    0.0000    0.0000 C   0  0  0  0  0  0  0  0  0  0  0  0
   -0.7145    0.0000    0.0000 C   0  0  0  0  0  0  0  0  0  0  0  0
    0.0000    0.0000    0.0000 C   0  0  0  0  0  0  0  0  0  0  0  0
    0.0000    0.0000    0.0000 O   0  0  0  0  0  0  0  0  0  0  0  0
   -1.4289    0.0000    0.0000 O   0  0  0  0  0  0  0  0  0  0  0  0
    0.0000    0.0000    0.0000 C   0  0  0  0  0  0  0  0  0  0  0  0
    0.7145    0.0000    0.0000 C   0  0  0  0  0  0  0  0  0  0  0  0
    0.7145    0.0000    0.0000 C   0  0  0  0  0  0  0  0  0  0  0  0
    1.4289    0.0000    0.0000 O   0  0  0  0  0  0  0  0  0  0  0  0
    0.0000    0.0000    0.0000 O   0  0  0  0  0  0  0  0  0  0  0  0
  1  2  2  0      
  2  3  1  0      
  3  4  2  0      
  4  5  1  0      
  5  6  2  0      
  1  6  1  0      
  6  7  1  0      
  4  8  1  0      
  3  9  1  0      
  9 10  1  0      
 10 11  1  0      
 11 12  2  0      
 11 13  1  0      
M  END
>  <Bioactivity>
Inhibitor of mushroom tyrosinase with activity value of 1.85?M which could enhanced substituted resorcinol hydrophobicity

>  <CAS>
5631-68-5

>  <Col>
11

>  <Formula>
C9H10O4

>  <ID>
T3737

>  <Index>
800

>  <MOLENAME>
Hydroumbellic acid

>  <MolWt>
182.17

>  <Pathways>
Tyrosine Kinase/Adaptors

>  <Plate>
PLATE 010

>  <QR code>
1151478029

>  <Receptor>
Tyrosinase

>  <Reference>
1.Khatib S, et al. J Med Chem. 2007 May 31;50(11):2676-81.

>  <Row>
H

>  <SMILES>
C1=CC(=C(C=C1O)O)CCC(=O)O

>  <Target>
Tyrosinase inhibitor

>  <Weight>
10.3mg

$$$$
Lab-1.sdf
  ChemDraw05232018482D

 12 13  0  0  0  0  0  0  0  0999 V2000
    1.4046    0.0000    0.0000 C   0  0  0  0  0  0  0  0  0  0  0  0
    0.6900    0.0000    0.0000 C   0  0  0  0  0  0  0  0  0  0  0  0
   -0.0245    0.0000    0.0000 C   0  0  0  0  0  0  0  0  0  0  0  0
   -0.8091    0.0000    0.0000 C   0  0  0  0  0  0  0  0  0  0  0  0
   -1.2939    0.0000    0.0000 C   0  0  0  0  0  0  0  0  0  0  0  0
   -2.1189    0.0000    0.0000 O   0  0  0  0  0  0  0  0  0  0  0  0
   -0.8091    0.0000    0.0000 O   0  0  0  0  0  0  0  0  0  0  0  0
   -0.0245    0.0000    0.0000 C   0  0  0  0  0  0  0  0  0  0  0  0
    0.6900    0.0000    0.0000 C   0  0  0  0  0  0  0  0  0  0  0  0
    1.4046    0.0000    0.0000 C   0  0  0  0  0  0  0  0  0  0  0  0
    2.1189    0.0000    0.0000 O   0  0  0  0  0  0  0  0  0  0  0  0
    0.6900    0.0000    0.0000 O   0  0  0  0  0  0  0  0  0  0  0  0
  1  2  2  0      
  2  3  1  0      
  3  4  2  0      
  4  5  1  0      
  5  6  2  0      
  5  7  1  0      
  7  8  1  0      
  3  8  1  0      
  8  9  1  0      
  9 10  1  0      
  1 10  1  0      
 10 11  1  0      
  9 12  1  0      
M  END
>  <Bioactivity>
Griffonilide is an extract from the Semiaquilegia adoxoides root, a traditional anticancer herb.

>  <CAS>
61371-55-9

>  <Col>
2

>  <Formula>
C8H8O4

>  <ID>
T3873

>  <Index>
801

>  <MOLENAME>
griffonilide

>  <MolWt>
168.148

>  <Pathways>
Others

>  <Plate>
PLATE 011

>  <QR code>
1151480609

>  <Receptor>
Others

>  <Reference>
1. Chingwaru W,et al. Therapeutic and Prophylactic Potential of Morama (Tylosema esculentum): A Review. Phytother Res. 2015 Oct;29(10):1423-38.

>  <Row>
A

>  <SMILES>
C1=CC2=CC(=O)OC2C(C1O)O

>  <Target>
Others

>  <Weight>
10.2mg

$$$$
Lab-1.sdf
  ChemDraw05232018482D

 27 29  0  0  0  0  0  0  0  0999 V2000
   -2.1910    0.0000    0.0000 C   0  0  0  0  0  0  0  0  0  0  0  0
   -1.9361    0.0000    0.0000 C   0  0  0  0  0  0  0  0  0  0  0  0
   -2.4209    0.0000    0.0000 C   0  0  0  0  0  0  0  0  0  0  0  0
   -1.9361    0.0000    0.0000 C   0  0  0  0  0  0  0  0  0  0  0  0
   -2.1910    0.0000    0.0000 O   0  0  0  0  0  0  0  0  0  0  0  0
   -1.1515    0.0000    0.0000 C   0  0  0  0  0  0  0  0  0  0  0  0
   -1.1515    0.0000    0.0000 C   0  0  0  0  0  0  0  0  0  0  0  0
   -0.4370    0.0000    0.0000 C   0  0  0  0  0  0  0  0  0  0  0  0
    0.2776    0.0000    0.0000 O   0  0  0  0  0  0  0  0  0  0  0  0
    0.2776    0.0000    0.0000 C   0  0  0  0  0  0  0  0  0  0  0  0
   -0.4370    0.0000    0.0000 C   0  0  0  0  0  0  0  0  0  0  0  0
   -0.4370    0.0000    0.0000 C   0  0  0  0  0  0  0  0  0  0  0  0
    0.2776    0.0000    0.0000 O   0  0  0  0  0  0  0  0  0  0  0  0
   -1.1515    0.0000    0.0000 O   0  0  0  0  0  0  0  0  0  0  0  0
   -1.1515    0.0000    0.0000 C   0  0  0  0  0  0  0  0  0  0  0  0
   -0.4370    0.0000    0.0000 O   0  0  0  0  0  0  0  0  0  0  0  0
    0.2776    0.0000    0.0000 C   0  0  0  0  0  0  0  0  0  0  0  0
    0.9919    0.0000    0.0000 C   0  0  0  0  0  0  0  0  0  0  0  0
    1.7064    0.0000    0.0000 C   0  0  0  0  0  0  0  0  0  0  0  0
    1.7064    0.0000    0.0000 C   0  0  0  0  0  0  0  0  0  0  0  0
    0.9919    0.0000    0.0000 C   0  0  0  0  0  0  0  0  0  0  0  0
    0.2776    0.0000    0.0000 O   0  0  0  0  0  0  0  0  0  0  0  0
    0.9919    0.0000    0.0000 C   0  0  0  0  0  0  0  0  0  0  0  0
    1.7064    0.0000    0.0000 O   0  0  0  0  0  0  0  0  0  0  0  0
    2.4209    0.0000    0.0000 O   0  0  0  0  0  0  0  0  0  0  0  0
    2.4209    0.0000    0.0000 O   0  0  0  0  0  0  0  0  0  0  0  0
    0.9919    0.0000    0.0000 O   0  0  0  0  0  0  0  0  0  0  0  0
  1  2  1  0      
  2  3  1  0      
  3  4  1  0      
  4  5  2  0      
  4  6  1  0      
  6  7  1  0      
  2  7  1  0      
  7  8  1  0      
  8  9  1  0      
  9 10  1  0      
 10 11  2  0      
  6 11  1  0      
 11 12  1  0      
 12 13  2  0      
 12 14  1  0      
 14 15  1  0      
  8 16  1  0      
 16 17  1  0      
 17 18  1  0      
 18 19  1  0      
 19 20  1  0      
 20 21  1  0      
 21 22  1  0      
 17 22  1  0      
 21 23  1  0      
 23 24  1  0      
 20 25  1  0      
 19 26  1  0      
 18 27  1  0      
M  END
>  <Bioactivity>
Cornin induces angiogenesis in vitro via a programmed PI3K/Akt/eNOS/VEGF signaling axis.Cornin has protective potential against cerebral ischemia injury and its protective effects may be due to ameli
oration of cerebral mitochondrial function and its antioxidant property.

>  <CAS>
548-37-8

>  <Col>
3

>  <Formula>
C17H24O10

>  <ID>
T3890

>  <Index>
802

>  <MOLENAME>
VERBENALIN

>  <MolWt>
388.369

>  <Pathways>
PI3K/Akt

>  <Plate>
PLATE 011

>  <QR code>
1151480608

>  <Receptor>
Others

>  <Reference>
1. Kang Z1,et al. Cornin induces angiogenesis through PI3K-Akt-eNOS-VEGF signaling pathway. Food Chem Toxicol. 2013 Aug;58:340-6.   

>  <Row>
A

>  <SMILES>
CC1CC(=O)C2C1C(OC=C2C(=O)OC)OC3C(C(C(C(O3)CO)O)O)O

>  <Target>
Others

>  <Weight>
10.2mg

$$$$
Lab-1.sdf
  ChemDraw05232018482D

 41 47  0  0  0  0  0  0  0  0999 V2000
    6.2631    0.0000    0.0000 C   0  0  0  0  0  0  0  0  0  0  0  0
    5.4491    0.0000    0.0000 C   0  0  0  0  0  0  0  0  0  0  0  0
    4.9262    0.0000    0.0000 C   0  0  0  0  0  0  0  0  0  0  0  0
    4.1121    0.0000    0.0000 C   0  0  0  0  0  0  0  0  0  0  0  0
    3.8209    0.0000    0.0000 C   0  0  0  0  0  0  0  0  0  0  0  0
    3.2342    0.0000    0.0000 C   0  0  0  0  0  0  0  0  0  0  0  0
    2.5013    0.0000    0.0000 C   0  0  0  0  0  0  0  0  0  0  0  0
    2.6350    0.0000    0.0000 C   0  0  0  0  0  0  0  0  0  0  0  0
    3.4506    0.0000    0.0000 O   0  0  0  0  0  0  0  0  0  0  0  0
    1.9021    0.0000    0.0000 C   0  0  0  0  0  0  0  0  0  0  0  0
    1.3154    0.0000    0.0000 C   0  0  0  0  0  0  0  0  0  0  0  0
    1.6857    0.0000    0.0000 C   0  0  0  0  0  0  0  0  0  0  0  0
    1.2324    0.0000    0.0000 C   0  0  0  0  0  0  0  0  0  0  0  0
    0.4088    0.0000    0.0000 C   0  0  0  0  0  0  0  0  0  0  0  0
    0.0385    0.0000    0.0000 C   0  0  0  0  0  0  0  0  0  0  0  0
    0.4918    0.0000    0.0000 C   0  0  0  0  0  0  0  0  0  0  0  0
    0.1215    0.0000    0.0000 C   0  0  0  0  0  0  0  0  0  0  0  0
   -0.7021    0.0000    0.0000 C   0  0  0  0  0  0  0  0  0  0  0  0
   -1.1554    0.0000    0.0000 C   0  0  0  0  0  0  0  0  0  0  0  0
   -0.7851    0.0000    0.0000 C   0  0  0  0  0  0  0  0  0  0  0  0
   -1.2384    0.0000    0.0000 C   0  0  0  0  0  0  0  0  0  0  0  0
   -2.0621    0.0000    0.0000 C   0  0  0  0  0  0  0  0  0  0  0  0
   -2.4323    0.0000    0.0000 C   0  0  0  0  0  0  0  0  0  0  0  0
   -1.9790    0.0000    0.0000 C   0  0  0  0  0  0  0  0  0  0  0  0
   -3.2559    0.0000    0.0000 O   0  0  0  0  0  0  0  0  0  0  0  0
   -3.7093    0.0000    0.0000 C   0  0  0  0  0  0  0  0  0  0  0  0
   -3.3390    0.0000    0.0000 C   0  0  0  0  0  0  0  0  0  0  0  0
   -3.7923    0.0000    0.0000 C   0  0  0  0  0  0  0  0  0  0  0  0
   -4.6159    0.0000    0.0000 C   0  0  0  0  0  0  0  0  0  0  0  0
   -4.9862    0.0000    0.0000 C   0  0  0  0  0  0  0  0  0  0  0  0
   -4.5329    0.0000    0.0000 O   0  0  0  0  0  0  0  0  0  0  0  0
   -5.8098    0.0000    0.0000 C   0  0  0  0  0  0  0  0  0  0  0  0
   -6.2631    0.0000    0.0000 O   0  0  0  0  0  0  0  0  0  0  0  0
   -5.0692    0.0000    0.0000 O   0  0  0  0  0  0  0  0  0  0  0  0
   -3.4220    0.0000    0.0000 O   0  0  0  0  0  0  0  0  0  0  0  0
   -2.5154    0.0000    0.0000 O   0  0  0  0  0  0  0  0  0  0  0  0
   -0.4148    0.0000    0.0000 C   0  0  0  0  0  0  0  0  0  0  0  0
    2.1310    0.0000    0.0000 C   0  0  0  0  0  0  0  0  0  0  0  0
    3.3585    0.0000    0.0000 C   0  0  0  0  0  0  0  0  0  0  0  0
    4.3438    0.0000    0.0000 O   0  0  0  0  0  0  0  0  0  0  0  0
    5.1579    0.0000    0.0000 C   0  0  0  0  0  0  0  0  0  0  0  0
  1  2  1  0      
  2  3  1  0      
  3  4  1  0      
  4  5  1  0      
  5  6  1  0      
  6  7  1  0      
  7  8  1  0      
  8  9  1  0      
  5  9  1  0      
  8 10  1  0      
 10 11  1  0      
 11 12  1  0      
  7 12  1  0      
 12 13  1  0      
 13 14  1  0      
 14 15  1  0      
 15 16  1  0      
 11 16  1  0      
 16 17  1  0      
 17 18  1  0      
 18 19  2  0      
 19 20  1  0      
 15 20  1  0      
 20 21  1  0      
 21 22  1  0      
 22 23  1  0      
 23 24  1  0      
 19 24  1  0      
 23 25  1  0      
 25 26  1  0      
 26 27  1  0      
 27 28  1  0      
 28 29  1  0      
 29 30  1  0      
 30 31  1  0      
 26 31  1  0      
 30 32  1  0      
 32 33  1  0      
 29 34  1  0      
 28 35  1  0      
 27 36  1  0      
 20 37  1  0      
 12 38  1  0      
  6 39  1  0      
  5 40  1  0      
 40 41  1  0      
  2 41  1  0      
M  END
>  <Bioactivity>
Diosgenin glucoside and other synthetic glycosides with similar activities may be of use in the management of hypercholesterolemia and atherosclerosis. Significant inhibition of Diosgenin glucoside s
ynthesis and stimulation of solasodine glucosylation was found only with PC molecular species containing fatty acids with chain length of 12-18 carbon atoms.

>  <CAS>
14144-06-0

>  <Col>
4

>  <Formula>
C33H52O8

>  <ID>
T3874

>  <Index>
803

>  <MOLENAME>
Diosgenin glucoside

>  <MolWt>
576.771

>  <Pathways>
Others

>  <Plate>
PLATE 011

>  <QR code>
1151480607

>  <Receptor>
Others

>  <Reference>
1.Malinow MR,et al. Effects of synthetic glycosides on steroid balance in Macaca fascicularis. J Lipid Res. 1987 Jan;28(1):1-9.

>  <Row>
A

>  <SMILES>
CC1CCC2(C(C3C(O2)CC4C3(CCC5C4CC=C6C5(CCC(C6)OC7C(C(C(C(O7)CO)O)O)O)C)C)C)OC1

>  <Target>
Others

>  <Weight>
10.3mg

$$$$
Lab-1.sdf
  ChemDraw05232018482D

 59 64  0  0  0  0  0  0  0  0999 V2000
   -1.0717    0.0000    0.0000 C   0  0  0  0  0  0  0  0  0  0  0  0
   -1.7862    0.0000    0.0000 C   0  0  0  0  0  0  0  0  0  0  0  0
   -2.5006    0.0000    0.0000 C   0  0  0  0  0  0  0  0  0  0  0  0
   -3.2151    0.0000    0.0000 C   0  0  0  0  0  0  0  0  0  0  0  0
   -3.2151    0.0000    0.0000 C   0  0  0  0  0  0  0  0  0  0  0  0
   -2.5006    0.0000    0.0000 C   0  0  0  0  0  0  0  0  0  0  0  0
   -1.7862    0.0000    0.0000 O   0  0  0  0  0  0  0  0  0  0  0  0
   -2.5006    0.0000    0.0000 O   0  0  0  0  0  0  0  0  0  0  0  0
   -1.7862    0.0000    0.0000 C   0  0  0  0  0  0  0  0  0  0  0  0
   -1.7862    0.0000    0.0000 C   0  0  0  0  0  0  0  0  0  0  0  0
   -1.0717    0.0000    0.0000 O   0  0  0  0  0  0  0  0  0  0  0  0
   -0.3572    0.0000    0.0000 C   0  0  0  0  0  0  0  0  0  0  0  0
   -0.3572    0.0000    0.0000 C   0  0  0  0  0  0  0  0  0  0  0  0
   -1.0717    0.0000    0.0000 C   0  0  0  0  0  0  0  0  0  0  0  0
   -1.0717    0.0000    0.0000 O   0  0  0  0  0  0  0  0  0  0  0  0
    0.3572    0.0000    0.0000 C   0  0  0  0  0  0  0  0  0  0  0  0
    1.0717    0.0000    0.0000 C   0  0  0  0  0  0  0  0  0  0  0  0
    1.0717    0.0000    0.0000 C   0  0  0  0  0  0  0  0  0  0  0  0
    0.3572    0.0000    0.0000 C   0  0  0  0  0  0  0  0  0  0  0  0
    0.3572    0.0000    0.0000 C   0  0  0  0  0  0  0  0  0  0  0  0
   -0.3572    0.0000    0.0000 C   0  0  0  0  0  0  0  0  0  0  0  0
   -0.3572    0.0000    0.0000 C   0  0  0  0  0  0  0  0  0  0  0  0
   -1.0717    0.0000    0.0000 C   0  0  0  0  0  0  0  0  0  0  0  0
    0.3572    0.0000    0.0000 C   0  0  0  0  0  0  0  0  0  0  0  0
    1.7862    0.0000    0.0000 O   0  0  0  0  0  0  0  0  0  0  0  0
    2.5007    0.0000    0.0000 C   0  0  0  0  0  0  0  0  0  0  0  0
    2.5007    0.0000    0.0000 C   0  0  0  0  0  0  0  0  0  0  0  0
    3.2151    0.0000    0.0000 C   0  0  0  0  0  0  0  0  0  0  0  0
    3.9296    0.0000    0.0000 C   0  0  0  0  0  0  0  0  0  0  0  0
    3.9296    0.0000    0.0000 C   0  0  0  0  0  0  0  0  0  0  0  0
    3.2151    0.0000    0.0000 O   0  0  0  0  0  0  0  0  0  0  0  0
    4.6441    0.0000    0.0000 C   0  0  0  0  0  0  0  0  0  0  0  0
    5.3585    0.0000    0.0000 O   0  0  0  0  0  0  0  0  0  0  0  0
    4.6441    0.0000    0.0000 O   0  0  0  0  0  0  0  0  0  0  0  0
    3.2151    0.0000    0.0000 O   0  0  0  0  0  0  0  0  0  0  0  0
    1.7862    0.0000    0.0000 O   0  0  0  0  0  0  0  0  0  0  0  0
    0.3572    0.0000    0.0000 O   0  0  0  0  0  0  0  0  0  0  0  0
   -2.5006    0.0000    0.0000 C   0  0  0  0  0  0  0  0  0  0  0  0
   -2.5006    0.0000    0.0000 C   0  0  0  0  0  0  0  0  0  0  0  0
   -3.2151    0.0000    0.0000 C   0  0  0  0  0  0  0  0  0  0  0  0
   -3.9296    0.0000    0.0000 C   0  0  0  0  0  0  0  0  0  0  0  0
   -3.9296    0.0000    0.0000 C   0  0  0  0  0  0  0  0  0  0  0  0
   -3.2151    0.0000    0.0000 C   0  0  0  0  0  0  0  0  0  0  0  0
   -4.6441    0.0000    0.0000 O   0  0  0  0  0  0  0  0  0  0  0  0
   -5.3585    0.0000    0.0000 C   0  0  0  0  0  0  0  0  0  0  0  0
   -3.9296    0.0000    0.0000 O   0  0  0  0  0  0  0  0  0  0  0  0
   -3.9296    0.0000    0.0000 O   0  0  0  0  0  0  0  0  0  0  0  0
   -3.9296    0.0000    0.0000 C   0  0  0  0  0  0  0  0  0  0  0  0
   -4.6441    0.0000    0.0000 C   0  0  0  0  0  0  0  0  0  0  0  0
   -4.6441    0.0000    0.0000 C   0  0  0  0  0  0  0  0  0  0  0  0
   -3.9296    0.0000    0.0000 C   0  0  0  0  0  0  0  0  0  0  0  0
   -3.2151    0.0000    0.0000 C   0  0  0  0  0  0  0  0  0  0  0  0
   -3.2151    0.0000    0.0000 O   0  0  0  0  0  0  0  0  0  0  0  0
   -2.5006    0.0000    0.0000 C   0  0  0  0  0  0  0  0  0  0  0  0
   -2.5006    0.0000    0.0000 O   0  0  0  0  0  0  0  0  0  0  0  0
   -3.9296    0.0000    0.0000 O   0  0  0  0  0  0  0  0  0  0  0  0
   -5.3585    0.0000    0.0000 O   0  0  0  0  0  0  0  0  0  0  0  0
   -5.3585    0.0000    0.0000 O   0  0  0  0  0  0  0  0  0  0  0  0
   -2.5006    0.0000    0.0000 O   0  0  0  0  0  0  0  0  0  0  0  0
  1  2  1  0      
  2  3  1  0      
  3  4  1  0      
  4  5  1  0      
  5  6  1  0      
  6  7  1  0      
  2  7  1  0      
  6  8  1  0      
  8  9  1  0      
  9 10  2  0      
 10 11  1  0      
 11 12  1  0      
 12 13  2  0      
 13 14  1  0      
  9 14  1  0      
 14 15  2  0      
 13 16  1  0      
 16 17  2  0      
 17 18  1  0      
 18 19  2  0      
 12 19  1  0      
 19 20  1  0      
 20 21  1  0      
 21 22  2  0      
 22 23  1  0      
 22 24  1  0      
 18 25  1  0      
 25 26  1  0      
 26 27  1  0      
 27 28  1  0      
 28 29  1  0      
 29 30  1  0      
 30 31  1  0      
 26 31  1  0      
 30 32  1  0      
 32 33  1  0      
 29 34  1  0      
 28 35  1  0      
 27 36  1  0      
 16 37  1  0      
 10 38  1  0      
 38 39  2  0      
 39 40  1  0      
 40 41  2  0      
 41 42  1  0      
 42 43  2  0      
 38 43  1  0      
 41 44  1  0      
 44 45  1  0      
  5 46  1  0      
  4 47  1  0      
 47 48  1  0      
 48 49  1  0      
 49 50  1  0      
 50 51  1  0      
 51 52  1  0      
 52 53  1  0      
 48 53  1  0      
 52 54  1  0      
 54 55  1  0      
 51 56  1  0      
 50 57  1  0      
 49 58  1  0      
  3 59  1  0      
M  END
>  <Bioactivity>
 Epimedin A has anti-osteoporosis activities in vivo.

>  <CAS>
110623-72-8

>  <Col>
5

>  <Formula>
C39H50O20

>  <ID>
T3906

>  <Index>
804

>  <MOLENAME>
Epimedin A

>  <MolWt>
838.8

>  <Pathways>
Others

>  <Plate>
PLATE 011

>  <QR code>
1151480606

>  <Receptor>
Others

>  <Reference>
1.Li HB1, Chen F.Separation and purification of epimedin A, B, C, and icariin from the medicinal herb Epimedium brevicornum maxim by dual-mode HSCCC.J Chromatogr Sci. 2009 May-Jun;47(5):337-40.

>  <Row>
A

>  <SMILES>
CC1C(C(C(C(O1)OC2=C(OC3=C(C2=O)C(=CC(=C3CC=C(C)C)OC4C(C(C(C(O4)CO)O)O)O)O)C5=CC=C(C=C5)OC)O)OC6C(C(C(C(O6)CO)O)O)O)O

>  <Target>
Others

>  <Weight>
10.1mg

$$$$
Lab-1.sdf
  ChemDraw05232018482D

 48 51  0  0  0  0  0  0  0  0999 V2000
    1.4289    0.0000    0.0000 C   0  0  0  0  0  0  0  0  0  0  0  0
    0.7144    0.0000    0.0000 C   0  0  0  0  0  0  0  0  0  0  0  0
    0.7144    0.0000    0.0000 C   0  0  0  0  0  0  0  0  0  0  0  0
   -0.0000    0.0000    0.0000 C   0  0  0  0  0  0  0  0  0  0  0  0
   -0.0000    0.0000    0.0000 C   0  0  0  0  0  0  0  0  0  0  0  0
    0.7144    0.0000    0.0000 C   0  0  0  0  0  0  0  0  0  0  0  0
    1.4289    0.0000    0.0000 O   0  0  0  0  0  0  0  0  0  0  0  0
    1.4289    0.0000    0.0000 C   0  0  0  0  0  0  0  0  0  0  0  0
    2.1433    0.0000    0.0000 O   0  0  0  0  0  0  0  0  0  0  0  0
    2.8578    0.0000    0.0000 C   0  0  0  0  0  0  0  0  0  0  0  0
    3.5722    0.0000    0.0000 C   0  0  0  0  0  0  0  0  0  0  0  0
    4.2867    0.0000    0.0000 C   0  0  0  0  0  0  0  0  0  0  0  0
    4.2867    0.0000    0.0000 C   0  0  0  0  0  0  0  0  0  0  0  0
    3.5722    0.0000    0.0000 C   0  0  0  0  0  0  0  0  0  0  0  0
    2.8578    0.0000    0.0000 O   0  0  0  0  0  0  0  0  0  0  0  0
    3.5722    0.0000    0.0000 C   0  0  0  0  0  0  0  0  0  0  0  0
    4.2867    0.0000    0.0000 O   0  0  0  0  0  0  0  0  0  0  0  0
    5.0012    0.0000    0.0000 O   0  0  0  0  0  0  0  0  0  0  0  0
    5.0012    0.0000    0.0000 O   0  0  0  0  0  0  0  0  0  0  0  0
    3.5722    0.0000    0.0000 O   0  0  0  0  0  0  0  0  0  0  0  0
   -0.7145    0.0000    0.0000 C   0  0  0  0  0  0  0  0  0  0  0  0
   -1.4290    0.0000    0.0000 O   0  0  0  0  0  0  0  0  0  0  0  0
   -0.7145    0.0000    0.0000 O   0  0  0  0  0  0  0  0  0  0  0  0
   -0.0000    0.0000    0.0000 C   0  0  0  0  0  0  0  0  0  0  0  0
   -0.7145    0.0000    0.0000 C   0  0  0  0  0  0  0  0  0  0  0  0
   -0.7145    0.0000    0.0000 C   0  0  0  0  0  0  0  0  0  0  0  0
   -0.0000    0.0000    0.0000 O   0  0  0  0  0  0  0  0  0  0  0  0
   -1.4290    0.0000    0.0000 O   0  0  0  0  0  0  0  0  0  0  0  0
   -1.4290    0.0000    0.0000 C   0  0  0  0  0  0  0  0  0  0  0  0
   -2.1433    0.0000    0.0000 C   0  0  0  0  0  0  0  0  0  0  0  0
   -2.8578    0.0000    0.0000 C   0  0  0  0  0  0  0  0  0  0  0  0
   -3.5723    0.0000    0.0000 C   0  0  0  0  0  0  0  0  0  0  0  0
   -3.5723    0.0000    0.0000 C   0  0  0  0  0  0  0  0  0  0  0  0
   -2.8578    0.0000    0.0000 C   0  0  0  0  0  0  0  0  0  0  0  0
   -2.1433    0.0000    0.0000 O   0  0  0  0  0  0  0  0  0  0  0  0
   -2.8578    0.0000    0.0000 O   0  0  0  0  0  0  0  0  0  0  0  0
   -2.1433    0.0000    0.0000 C   0  0  0  0  0  0  0  0  0  0  0  0
   -2.1433    0.0000    0.0000 C   0  0  0  0  0  0  0  0  0  0  0  0
   -2.8578    0.0000    0.0000 C   0  0  0  0  0  0  0  0  0  0  0  0
   -3.5723    0.0000    0.0000 C   0  0  0  0  0  0  0  0  0  0  0  0
   -4.2868    0.0000    0.0000 C   0  0  0  0  0  0  0  0  0  0  0  0
   -4.2868    0.0000    0.0000 C   0  0  0  0  0  0  0  0  0  0  0  0
   -3.5723    0.0000    0.0000 C   0  0  0  0  0  0  0  0  0  0  0  0
   -2.8578    0.0000    0.0000 C   0  0  0  0  0  0  0  0  0  0  0  0
   -5.0012    0.0000    0.0000 O   0  0  0  0  0  0  0  0  0  0  0  0
   -4.2868    0.0000    0.0000 O   0  0  0  0  0  0  0  0  0  0  0  0
   -4.2868    0.0000    0.0000 O   0  0  0  0  0  0  0  0  0  0  0  0
   -2.8578    0.0000    0.0000 O   0  0  0  0  0  0  0  0  0  0  0  0
  2  1  1  4      
  2  3  2  0      
  3  4  1  0      
  4  5  1  0      
  5  6  2  0      
  6  7  1  0      
  7  8  1  0      
  3  8  1  0      
  8  9  1  0      
  9 10  1  0      
 10 11  1  0      
 11 12  1  0      
 12 13  1  0      
 13 14  1  0      
 14 15  1  0      
 10 15  1  0      
 14 16  1  0      
 16 17  1  0      
 13 18  1  0      
 12 19  1  0      
 11 20  1  0      
  5 21  1  0      
 21 22  2  0      
 21 23  1  0      
 23 24  1  0      
  4 25  1  0      
 25 26  1  0      
 26 27  2  0      
 26 28  1  0      
 28 29  1  0      
 29 30  1  0      
 30 31  1  0      
 31 32  1  0      
 32 33  1  0      
 33 34  1  0      
 34 35  1  0      
 30 35  1  0      
 34 36  1  0      
 36 37  1  0      
 37 38  1  0      
 38 39  1  0      
 39 40  2  0      
 40 41  1  0      
 41 42  2  0      
 42 43  1  0      
 43 44  2  0      
 39 44  1  0      
 42 45  1  0      
 33 46  1  0      
 32 47  1  0      
 31 48  1  0      
M  END
>  <Bioactivity>
Nuezhenide significantly protects human neuroblastoma SH-SY5Y cells from 6-hydroxydopamine-induced neurotoxicity.Nuezhenide is the main inhibitory compound of fruits, it shows a clear inhibitory effec
t to the seeds of wheat and Chinese cabbage.

>  <CAS>
39011-92-2

>  <Col>
6

>  <Formula>
C31H42O17

>  <ID>
T3803

>  <Index>
805

>  <MOLENAME>
Nuezhenide

>  <MolWt>
686.7

>  <Pathways>
Others

>  <Plate>
PLATE 011

>  <QR code>
1151480605

>  <Receptor>
Others

>  <Reference>
1. Ben Mansour A,et al. Phenolic profile characterization of Chemlali olive stones by liquid chromatography-ion trap mass spectrometry.  J Agric Food Chem. 2015 Feb 25;63(7):1990-5.

>  <Row>
A

>  <SMILES>
CC=C1C(C(=COC1OC2C(C(C(C(O2)CO)O)O)O)C(=O)OC)CC(=O)OCC3C(C(C(C(O3)OCCC4=CC=C(C=C4)O)O)O)O

>  <Target>
Others

>  <Weight>
10.3mg

$$$$
Lab-1.sdf
  ChemDraw05232018482D

 84 94  0  0  0  0  0  0  0  0999 V2000
    0.3595    0.0000    0.0000 C   0  0  0  0  0  0  0  0  0  0  0  0
    1.1831    0.0000    0.0000 C   0  0  0  0  0  0  0  0  0  0  0  0
    1.6358    0.0000    0.0000 C   0  0  0  0  0  0  0  0  0  0  0  0
    2.4594    0.0000    0.0000 C   0  0  0  0  0  0  0  0  0  0  0  0
    2.8304    0.0000    0.0000 C   0  0  0  0  0  0  0  0  0  0  0  0
    2.3777    0.0000    0.0000 C   0  0  0  0  0  0  0  0  0  0  0  0
    1.5541    0.0000    0.0000 O   0  0  0  0  0  0  0  0  0  0  0  0
    2.7487    0.0000    0.0000 O   0  0  0  0  0  0  0  0  0  0  0  0
    2.2960    0.0000    0.0000 C   0  0  0  0  0  0  0  0  0  0  0  0
    2.6669    0.0000    0.0000 C   0  0  0  0  0  0  0  0  0  0  0  0
    2.2142    0.0000    0.0000 C   0  0  0  0  0  0  0  0  0  0  0  0
    1.3906    0.0000    0.0000 C   0  0  0  0  0  0  0  0  0  0  0  0
    1.0196    0.0000    0.0000 O   0  0  0  0  0  0  0  0  0  0  0  0
    1.4723    0.0000    0.0000 C   0  0  0  0  0  0  0  0  0  0  0  0
    1.1014    0.0000    0.0000 O   0  0  0  0  0  0  0  0  0  0  0  0
    0.2776    0.0000    0.0000 C   0  0  0  0  0  0  0  0  0  0  0  0
   -0.0933    0.0000    0.0000 C   0  0  0  0  0  0  0  0  0  0  0  0
   -0.9170    0.0000    0.0000 C   0  0  0  0  0  0  0  0  0  0  0  0
   -1.3697    0.0000    0.0000 C   0  0  0  0  0  0  0  0  0  0  0  0
   -2.1933    0.0000    0.0000 C   0  0  0  0  0  0  0  0  0  0  0  0
   -2.5515    0.0000    0.0000 C   0  0  0  0  0  0  0  0  0  0  0  0
   -3.3705    0.0000    0.0000 C   0  0  0  0  0  0  0  0  0  0  0  0
   -3.8082    0.0000    0.0000 C   0  0  0  0  0  0  0  0  0  0  0  0
   -4.6338    0.0000    0.0000 C   0  0  0  0  0  0  0  0  0  0  0  0
   -5.2392    0.0000    0.0000 C   0  0  0  0  0  0  0  0  0  0  0  0
   -6.0436    0.0000    0.0000 C   0  0  0  0  0  0  0  0  0  0  0  0
   -6.2525    0.0000    0.0000 C   0  0  0  0  0  0  0  0  0  0  0  0
   -5.6323    0.0000    0.0000 O   0  0  0  0  0  0  0  0  0  0  0  0
   -4.7466    0.0000    0.0000 C   0  0  0  0  0  0  0  0  0  0  0  0
   -3.8397    0.0000    0.0000 C   0  0  0  0  0  0  0  0  0  0  0  0
   -3.4624    0.0000    0.0000 C   0  0  0  0  0  0  0  0  0  0  0  0
   -2.6460    0.0000    0.0000 C   0  0  0  0  0  0  0  0  0  0  0  0
   -2.2751    0.0000    0.0000 C   0  0  0  0  0  0  0  0  0  0  0  0
   -1.4514    0.0000    0.0000 C   0  0  0  0  0  0  0  0  0  0  0  0
   -0.9987    0.0000    0.0000 C   0  0  0  0  0  0  0  0  0  0  0  0
   -0.1751    0.0000    0.0000 C   0  0  0  0  0  0  0  0  0  0  0  0
   -0.1935    0.0000    0.0000 C   0  0  0  0  0  0  0  0  0  0  0  0
    0.4985    0.0000    0.0000 C   0  0  0  0  0  0  0  0  0  0  0  0
   -3.0774    0.0000    0.0000 C   0  0  0  0  0  0  0  0  0  0  0  0
   -3.8473    0.0000    0.0000 C   0  0  0  0  0  0  0  0  0  0  0  0
   -4.7262    0.0000    0.0000 O   0  0  0  0  0  0  0  0  0  0  0  0
   -7.0446    0.0000    0.0000 C   0  0  0  0  0  0  0  0  0  0  0  0
   -7.6405    0.0000    0.0000 C   0  0  0  0  0  0  0  0  0  0  0  0
   -7.4443    0.0000    0.0000 C   0  0  0  0  0  0  0  0  0  0  0  0
   -8.4325    0.0000    0.0000 C   0  0  0  0  0  0  0  0  0  0  0  0
   -4.6670    0.0000    0.0000 C   0  0  0  0  0  0  0  0  0  0  0  0
   -5.4111    0.0000    0.0000 O   0  0  0  0  0  0  0  0  0  0  0  0
   -1.7406    0.0000    0.0000 C   0  0  0  0  0  0  0  0  0  0  0  0
    2.5852    0.0000    0.0000 O   0  0  0  0  0  0  0  0  0  0  0  0
    3.4906    0.0000    0.0000 O   0  0  0  0  0  0  0  0  0  0  0  0
    3.8615    0.0000    0.0000 C   0  0  0  0  0  0  0  0  0  0  0  0
    4.6852    0.0000    0.0000 C   0  0  0  0  0  0  0  0  0  0  0  0
    5.0561    0.0000    0.0000 C   0  0  0  0  0  0  0  0  0  0  0  0
    4.6034    0.0000    0.0000 C   0  0  0  0  0  0  0  0  0  0  0  0
    3.7798    0.0000    0.0000 C   0  0  0  0  0  0  0  0  0  0  0  0
    3.4088    0.0000    0.0000 O   0  0  0  0  0  0  0  0  0  0  0  0
    3.3271    0.0000    0.0000 C   0  0  0  0  0  0  0  0  0  0  0  0
    3.6980    0.0000    0.0000 O   0  0  0  0  0  0  0  0  0  0  0  0
    3.2453    0.0000    0.0000 C   0  0  0  0  0  0  0  0  0  0  0  0
    3.6163    0.0000    0.0000 C   0  0  0  0  0  0  0  0  0  0  0  0
    3.1636    0.0000    0.0000 C   0  0  0  0  0  0  0  0  0  0  0  0
    2.3400    0.0000    0.0000 C   0  0  0  0  0  0  0  0  0  0  0  0
    1.9690    0.0000    0.0000 C   0  0  0  0  0  0  0  0  0  0  0  0
    2.4217    0.0000    0.0000 O   0  0  0  0  0  0  0  0  0  0  0  0
    1.1454    0.0000    0.0000 C   0  0  0  0  0  0  0  0  0  0  0  0
    0.6927    0.0000    0.0000 O   0  0  0  0  0  0  0  0  0  0  0  0
    1.8873    0.0000    0.0000 O   0  0  0  0  0  0  0  0  0  0  0  0
    3.5346    0.0000    0.0000 O   0  0  0  0  0  0  0  0  0  0  0  0
    4.4399    0.0000    0.0000 O   0  0  0  0  0  0  0  0  0  0  0  0
    4.9744    0.0000    0.0000 O   0  0  0  0  0  0  0  0  0  0  0  0
    5.8798    0.0000    0.0000 O   0  0  0  0  0  0  0  0  0  0  0  0
    5.1379    0.0000    0.0000 O   0  0  0  0  0  0  0  0  0  0  0  0
    5.9615    0.0000    0.0000 C   0  0  0  0  0  0  0  0  0  0  0  0
    6.4142    0.0000    0.0000 C   0  0  0  0  0  0  0  0  0  0  0  0
    7.2379    0.0000    0.0000 C   0  0  0  0  0  0  0  0  0  0  0  0
    7.6088    0.0000    0.0000 C   0  0  0  0  0  0  0  0  0  0  0  0
    7.1561    0.0000    0.0000 C   0  0  0  0  0  0  0  0  0  0  0  0
    6.3325    0.0000    0.0000 O   0  0  0  0  0  0  0  0  0  0  0  0
    8.4325    0.0000    0.0000 O   0  0  0  0  0  0  0  0  0  0  0  0
    7.6906    0.0000    0.0000 O   0  0  0  0  0  0  0  0  0  0  0  0
    6.0433    0.0000    0.0000 O   0  0  0  0  0  0  0  0  0  0  0  0
    3.6540    0.0000    0.0000 O   0  0  0  0  0  0  0  0  0  0  0  0
    2.9121    0.0000    0.0000 O   0  0  0  0  0  0  0  0  0  0  0  0
    1.2648    0.0000    0.0000 O   0  0  0  0  0  0  0  0  0  0  0  0
  1  2  1  0      
  2  3  1  0      
  3  4  1  0      
  4  5  1  0      
  5  6  1  0      
  6  7  1  0      
  2  7  1  0      
  6  8  1  0      
  8  9  1  0      
  9 10  1  0      
 10 11  1  0      
 11 12  1  0      
 12 13  1  0      
 13 14  1  0      
  9 14  1  0      
 14 15  1  0      
 15 16  1  0      
 16 17  1  0      
 17 18  1  0      
 18 19  1  0      
 19 20  1  0      
 20 21  1  0      
 21 22  1  0      
 22 23  1  0      
 23 24  1  0      
 24 25  1  0      
 25 26  1  0      
 26 27  1  0      
 27 28  1  0      
 28 29  1  0      
 24 29  1  0      
 29 30  1  0      
 30 31  1  0      
 23 31  1  0      
 31 32  1  0      
 20 32  1  0      
 32 33  1  0      
 33 34  1  0      
 34 35  1  0      
 19 35  1  0      
 35 36  1  0      
 16 36  1  0      
 36 37  1  0      
 36 38  1  0      
 32 39  1  0      
 31 40  1  0      
 40 41  1  0      
 29 41  1  0      
 27 42  1  0      
 42 43  2  0      
 43 44  1  0      
 43 45  1  0      
 25 46  1  0      
 25 47  1  0      
 19 48  1  0      
 11 49  1  0      
 10 50  1  0      
 50 51  1  0      
 51 52  1  0      
 52 53  1  0      
 53 54  1  0      
 54 55  1  0      
 55 56  1  0      
 51 56  1  0      
 55 57  1  0      
 57 58  1  0      
 58 59  1  0      
 59 60  1  0      
 60 61  1  0      
 61 62  1  0      
 62 63  1  0      
 63 64  1  0      
 59 64  1  0      
 63 65  1  0      
 65 66  1  0      
 62 67  1  0      
 61 68  1  0      
 60 69  1  0      
 54 70  1  0      
 53 71  1  0      
 52 72  1  0      
 72 73  1  0      
 73 74  1  0      
 74 75  1  0      
 75 76  1  0      
 76 77  1  0      
 77 78  1  0      
 73 78  1  0      
 76 79  1  0      
 75 80  1  0      
 74 81  1  0      
  5 82  1  0      
  4 83  1  0      
  3 84  1  0      
M  END
>  <Bioactivity>
Jujuboside A  has neurophysiological inhibitory effects, are more persistent than their Glu inhibitory effects.Jujuboside A performs its specific sedative and hypnotic effect through not only adjusti
ng GABA receptors subunit mRNAs expression, but also down-regulating the secretion of relevant inflammation cytokines on the intestinal mucosal system to affect the intercellular cytokine network betw
een nerve cells in the brain; may serve as a potential therapeutic agent for the treatment of Alzheimer?s disease.

>  <CAS>
55466-04-1

>  <Col>
7

>  <Formula>
C58H94O26

>  <ID>
T3782

>  <Index>
806

>  <MOLENAME>
Jujuboside A

>  <MolWt>
1207.36

>  <Pathways>
Neuronal Signaling

>  <Plate>
PLATE 011

>  <QR code>
1151480604

>  <Receptor>
GLU

>  <Reference>
1. Liu Z,et al. Jujuboside A, a neuroprotective agent from semen Ziziphi Spinosae ameliorates behavioral disorders of the dementia mouse model induced by A¦Â 1-42. Eur J Pharmacol. 2014 Sep 5;738:206-
13.

>  <Row>
A

>  <SMILES>
CC1C(C(C(C(O1)OC2C(C(COC2OC3CCC4(C5CCC6C7C(CC(OC78CC6(C5(CCC4C3(C)C)C)CO8)C=C(C)C)(C)O)C)O)OC9C(C(C(C(O9)COC1C(C(C(C(O1)CO)O)O)O)O)O)OC1C(C(C(CO1)O)O)O)O)O)O

>  <Target>
Glu inhibitor

>  <Weight>
10.2mg

$$$$
Lab-1.sdf
  ChemDraw05232018482D

 19 20  0  0  0  0  0  0  0  0999 V2000
    2.1434    0.0000    0.0000 C   0  0  0  0  0  0  0  0  0  0  0  0
    1.4289    0.0000    0.0000 O   0  0  0  0  0  0  0  0  0  0  0  0
    1.4289    0.0000    0.0000 C   0  0  0  0  0  0  0  0  0  0  0  0
    2.1434    0.0000    0.0000 C   0  0  0  0  0  0  0  0  0  0  0  0
    2.1434    0.0000    0.0000 C   0  0  0  0  0  0  0  0  0  0  0  0
    1.4289    0.0000    0.0000 C   0  0  0  0  0  0  0  0  0  0  0  0
    0.7145    0.0000    0.0000 C   0  0  0  0  0  0  0  0  0  0  0  0
    0.7145    0.0000    0.0000 C   0  0  0  0  0  0  0  0  0  0  0  0
   -0.0000    0.0000    0.0000 C   0  0  0  0  0  0  0  0  0  0  0  0
   -0.0000    0.0000    0.0000 C   0  0  0  0  0  0  0  0  0  0  0  0
   -0.7145    0.0000    0.0000 C   0  0  0  0  0  0  0  0  0  0  0  0
   -0.7145    0.0000    0.0000 C   0  0  0  0  0  0  0  0  0  0  0  0
   -1.4289    0.0000    0.0000 C   0  0  0  0  0  0  0  0  0  0  0  0
   -2.1434    0.0000    0.0000 C   0  0  0  0  0  0  0  0  0  0  0  0
   -2.1434    0.0000    0.0000 C   0  0  0  0  0  0  0  0  0  0  0  0
   -1.4289    0.0000    0.0000 C   0  0  0  0  0  0  0  0  0  0  0  0
   -2.8579    0.0000    0.0000 O   0  0  0  0  0  0  0  0  0  0  0  0
   -1.4289    0.0000    0.0000 O   0  0  0  0  0  0  0  0  0  0  0  0
    2.8579    0.0000    0.0000 O   0  0  0  0  0  0  0  0  0  0  0  0
  1  2  1  0      
  2  3  1  0      
  3  4  2  0      
  4  5  1  0      
  5  6  2  0      
  6  7  1  0      
  7  8  2  0      
  3  8  1  0      
  9  7  1  4      
  9 10  2  0      
 10 11  1  0      
 11 12  2  0      
 12 13  1  0      
 13 14  2  0      
 14 15  1  0      
 15 16  2  0      
 11 16  1  0      
 15 17  1  0      
 13 18  1  0      
  4 19  1  0      
M  END
>  <Bioactivity>
Isorhapontigenin is a tetrahydroxylated stilbenoid with a methoxy group. It is an isomer of rhapontigenin and an analog of resveratrol. It is found in the Chinese herb Gnetum cleistostachyum, in Gnetu
m parvifolium and in the seeds of the palm Aiphanes aculeata.

>  <CAS>
32507-66-7

>  <Col>
8

>  <Formula>
C15H14O4

>  <ID>
T3814

>  <Index>
807

>  <MOLENAME>
Isorhapontigenin 

>  <MolWt>
258.273

>  <Pathways>
Others

>  <Plate>
PLATE 011

>  <QR code>
1151480603

>  <Receptor>
Others

>  <Reference>
1. Zeng X, et al. Induction of miR-137 by Isorhapontigenin (ISO) Directly Targets Sp1 Protein Translation and Mediates Its Anticancer Activity Both In Vitro and In Vivo. Mol Cancer Ther. 2016 Mar;15(3
):512-22.

>  <Row>
A

>  <SMILES>
COC1=C(C=CC(=C1)C=CC2=CC(=CC(=C2)O)O)O

>  <Target>
Others

>  <Weight>
10.2mg

$$$$
Lab-1.sdf
  ChemDraw05232018482D

 86 95  0  0  0  0  0  0  0  0999 V2000
    7.2187    0.0000    0.0000 C   0  0  0  0  0  0  0  0  0  0  0  0
    6.8062    0.0000    0.0000 C   0  0  0  0  0  0  0  0  0  0  0  0
    7.2187    0.0000    0.0000 C   0  0  0  0  0  0  0  0  0  0  0  0
    6.8062    0.0000    0.0000 C   0  0  0  0  0  0  0  0  0  0  0  0
    5.9812    0.0000    0.0000 C   0  0  0  0  0  0  0  0  0  0  0  0
    5.5687    0.0000    0.0000 C   0  0  0  0  0  0  0  0  0  0  0  0
    5.9812    0.0000    0.0000 O   0  0  0  0  0  0  0  0  0  0  0  0
    4.7437    0.0000    0.0000 O   0  0  0  0  0  0  0  0  0  0  0  0
    4.3312    0.0000    0.0000 C   0  0  0  0  0  0  0  0  0  0  0  0
    4.7437    0.0000    0.0000 C   0  0  0  0  0  0  0  0  0  0  0  0
    4.3312    0.0000    0.0000 C   0  0  0  0  0  0  0  0  0  0  0  0
    3.5062    0.0000    0.0000 C   0  0  0  0  0  0  0  0  0  0  0  0
    3.0937    0.0000    0.0000 O   0  0  0  0  0  0  0  0  0  0  0  0
    3.5062    0.0000    0.0000 C   0  0  0  0  0  0  0  0  0  0  0  0
    3.0937    0.0000    0.0000 O   0  0  0  0  0  0  0  0  0  0  0  0
    2.2687    0.0000    0.0000 C   0  0  0  0  0  0  0  0  0  0  0  0
    1.8562    0.0000    0.0000 C   0  0  0  0  0  0  0  0  0  0  0  0
    1.0312    0.0000    0.0000 C   0  0  0  0  0  0  0  0  0  0  0  0
    0.6187    0.0000    0.0000 C   0  0  0  0  0  0  0  0  0  0  0  0
    1.0312    0.0000    0.0000 C   0  0  0  0  0  0  0  0  0  0  0  0
    1.8562    0.0000    0.0000 C   0  0  0  0  0  0  0  0  0  0  0  0
    2.5558    0.0000    0.0000 C   0  0  0  0  0  0  0  0  0  0  0  0
    1.8850    0.0000    0.0000 C   0  0  0  0  0  0  0  0  0  0  0  0
    2.6134    0.0000    0.0000 O   0  0  0  0  0  0  0  0  0  0  0  0
    0.6187    0.0000    0.0000 C   0  0  0  0  0  0  0  0  0  0  0  0
   -0.2063    0.0000    0.0000 C   0  0  0  0  0  0  0  0  0  0  0  0
   -0.6188    0.0000    0.0000 C   0  0  0  0  0  0  0  0  0  0  0  0
   -0.2063    0.0000    0.0000 C   0  0  0  0  0  0  0  0  0  0  0  0
   -0.6188    0.0000    0.0000 C   0  0  0  0  0  0  0  0  0  0  0  0
   -1.4438    0.0000    0.0000 C   0  0  0  0  0  0  0  0  0  0  0  0
   -1.8563    0.0000    0.0000 C   0  0  0  0  0  0  0  0  0  0  0  0
   -1.4438    0.0000    0.0000 C   0  0  0  0  0  0  0  0  0  0  0  0
   -1.8563    0.0000    0.0000 C   0  0  0  0  0  0  0  0  0  0  0  0
   -2.6813    0.0000    0.0000 C   0  0  0  0  0  0  0  0  0  0  0  0
   -3.0937    0.0000    0.0000 C   0  0  0  0  0  0  0  0  0  0  0  0
   -2.6813    0.0000    0.0000 C   0  0  0  0  0  0  0  0  0  0  0  0
   -3.0937    0.0000    0.0000 C   0  0  0  0  0  0  0  0  0  0  0  0
   -3.9187    0.0000    0.0000 C   0  0  0  0  0  0  0  0  0  0  0  0
   -4.3312    0.0000    0.0000 C   0  0  0  0  0  0  0  0  0  0  0  0
   -3.9187    0.0000    0.0000 C   0  0  0  0  0  0  0  0  0  0  0  0
   -3.9475    0.0000    0.0000 C   0  0  0  0  0  0  0  0  0  0  0  0
   -4.6184    0.0000    0.0000 C   0  0  0  0  0  0  0  0  0  0  0  0
   -3.5062    0.0000    0.0000 C   0  0  0  0  0  0  0  0  0  0  0  0
   -3.0937    0.0000    0.0000 O   0  0  0  0  0  0  0  0  0  0  0  0
   -4.3312    0.0000    0.0000 O   0  0  0  0  0  0  0  0  0  0  0  0
   -4.7437    0.0000    0.0000 C   0  0  0  0  0  0  0  0  0  0  0  0
   -4.3312    0.0000    0.0000 C   0  0  0  0  0  0  0  0  0  0  0  0
   -4.7437    0.0000    0.0000 C   0  0  0  0  0  0  0  0  0  0  0  0
   -5.5687    0.0000    0.0000 C   0  0  0  0  0  0  0  0  0  0  0  0
   -5.9812    0.0000    0.0000 C   0  0  0  0  0  0  0  0  0  0  0  0
   -5.5687    0.0000    0.0000 O   0  0  0  0  0  0  0  0  0  0  0  0
   -6.8062    0.0000    0.0000 C   0  0  0  0  0  0  0  0  0  0  0  0
   -7.2187    0.0000    0.0000 O   0  0  0  0  0  0  0  0  0  0  0  0
   -8.0437    0.0000    0.0000 C   0  0  0  0  0  0  0  0  0  0  0  0
   -8.4562    0.0000    0.0000 C   0  0  0  0  0  0  0  0  0  0  0  0
   -9.2812    0.0000    0.0000 C   0  0  0  0  0  0  0  0  0  0  0  0
   -9.6937    0.0000    0.0000 C   0  0  0  0  0  0  0  0  0  0  0  0
   -9.2812    0.0000    0.0000 C   0  0  0  0  0  0  0  0  0  0  0  0
   -8.4562    0.0000    0.0000 O   0  0  0  0  0  0  0  0  0  0  0  0
   -9.6937    0.0000    0.0000 C   0  0  0  0  0  0  0  0  0  0  0  0
  -10.5187    0.0000    0.0000 O   0  0  0  0  0  0  0  0  0  0  0  0
  -10.5187    0.0000    0.0000 O   0  0  0  0  0  0  0  0  0  0  0  0
   -9.6937    0.0000    0.0000 O   0  0  0  0  0  0  0  0  0  0  0  0
   -8.0437    0.0000    0.0000 O   0  0  0  0  0  0  0  0  0  0  0  0
   -5.9812    0.0000    0.0000 O   0  0  0  0  0  0  0  0  0  0  0  0
   -4.3312    0.0000    0.0000 O   0  0  0  0  0  0  0  0  0  0  0  0
   -3.5062    0.0000    0.0000 O   0  0  0  0  0  0  0  0  0  0  0  0
   -1.0313    0.0000    0.0000 C   0  0  0  0  0  0  0  0  0  0  0  0
   -0.5326    0.0000    0.0000 C   0  0  0  0  0  0  0  0  0  0  0  0
    0.2062    0.0000    0.0000 C   0  0  0  0  0  0  0  0  0  0  0  0
    4.7437    0.0000    0.0000 O   0  0  0  0  0  0  0  0  0  0  0  0
    5.5687    0.0000    0.0000 O   0  0  0  0  0  0  0  0  0  0  0  0
    5.5687    0.0000    0.0000 O   0  0  0  0  0  0  0  0  0  0  0  0
    7.2187    0.0000    0.0000 O   0  0  0  0  0  0  0  0  0  0  0  0
    8.0437    0.0000    0.0000 C   0  0  0  0  0  0  0  0  0  0  0  0
    8.4562    0.0000    0.0000 C   0  0  0  0  0  0  0  0  0  0  0  0
    9.2812    0.0000    0.0000 C   0  0  0  0  0  0  0  0  0  0  0  0
    9.6937    0.0000    0.0000 C   0  0  0  0  0  0  0  0  0  0  0  0
    9.2812    0.0000    0.0000 C   0  0  0  0  0  0  0  0  0  0  0  0
    8.4562    0.0000    0.0000 O   0  0  0  0  0  0  0  0  0  0  0  0
    9.6937    0.0000    0.0000 C   0  0  0  0  0  0  0  0  0  0  0  0
    9.2812    0.0000    0.0000 O   0  0  0  0  0  0  0  0  0  0  0  0
   10.5187    0.0000    0.0000 O   0  0  0  0  0  0  0  0  0  0  0  0
    9.6937    0.0000    0.0000 O   0  0  0  0  0  0  0  0  0  0  0  0
    8.0437    0.0000    0.0000 O   0  0  0  0  0  0  0  0  0  0  0  0
    8.0437    0.0000    0.0000 O   0  0  0  0  0  0  0  0  0  0  0  0
  1  2  1  0      
  2  3  1  0      
  3  4  1  0      
  4  5  1  0      
  5  6  1  0      
  6  7  1  0      
  2  7  1  0      
  6  8  1  0      
  8  9  1  0      
  9 10  1  0      
 10 11  1  0      
 11 12  1  0      
 12 13  1  0      
 13 14  1  0      
  9 14  1  0      
 14 15  1  0      
 15 16  1  0      
 16 17  1  0      
 17 18  1  0      
 18 19  1  0      
 19 20  1  0      
 20 21  1  0      
 16 21  1  0      
 21 22  1  0      
 21 23  1  0      
 23 24  1  0      
 20 25  1  0      
 25 26  1  0      
 26 27  1  0      
 27 28  1  0      
 19 28  1  0      
 28 29  1  0      
 29 30  1  0      
 30 31  2  0      
 31 32  1  0      
 27 32  1  0      
 32 33  1  0      
 33 34  1  0      
 34 35  1  0      
 35 36  1  0      
 31 36  1  0      
 36 37  1  0      
 37 38  1  0      
 38 39  1  0      
 39 40  1  0      
 35 40  1  0      
 38 41  1  0      
 38 42  1  0      
 35 43  1  0      
 43 44  2  0      
 43 45  1  0      
 45 46  1  0      
 46 47  1  0      
 47 48  1  0      
 48 49  1  0      
 49 50  1  0      
 50 51  1  0      
 46 51  1  0      
 50 52  1  0      
 52 53  1  0      
 53 54  1  0      
 54 55  1  0      
 55 56  1  0      
 56 57  1  0      
 57 58  1  0      
 58 59  1  0      
 54 59  1  0      
 58 60  1  0      
 60 61  1  0      
 57 62  1  0      
 56 63  1  0      
 55 64  1  0      
 49 65  1  0      
 48 66  1  0      
 47 67  1  0      
 32 68  1  0      
 27 69  1  0      
 19 70  1  0      
 11 71  1  0      
 10 72  1  0      
  5 73  1  0      
  4 74  1  0      
 74 75  1  0      
 75 76  1  0      
 76 77  1  0      
 77 78  1  0      
 78 79  1  0      
 79 80  1  0      
 75 80  1  0      
 79 81  1  0      
 81 82  1  0      
 78 83  1  0      
 77 84  1  0      
 76 85  1  0      
  3 86  1  0      
M  END
>  <Bioactivity>
macranthoidin A has anti-infllammation activity.

>  <CAS>
140360-29-8

>  <Col>
9

>  <Formula>
C59H96O27

>  <ID>
T3858

>  <Index>
808

>  <MOLENAME>
macranthoidin A

>  <MolWt>
1237.39

>  <Pathways>
Others

>  <Plate>
PLATE 011

>  <QR code>
1151480602

>  <Receptor>
Others

>  <Reference>
1. Chai XY,et al. Quality evaluation of Flos lonicerae through a simultaneous determination of seven saponins by HPLC with ELSD. J Chromatogr A. 2005 Apr 8;1070(1-2):43-8.

>  <Row>
A

>  <SMILES>
CC1C(C(C(C(O1)OC2C(C(COC2OC3CCC4(C(C3(C)CO)CCC5(C4CC=C6C5(CCC7(C6CC(CC7)(C)C)C(=O)OC8C(C(C(C(O8)COC9C(C(C(C(O9)CO)O)O)O)O)O)O)C)C)C)O)O)O)OC1C(C(C(C(O1)CO)O)O)O)O

>  <Target>
Others

>  <Weight>
10.3mg

$$$$
Lab-1.sdf
  ChemDraw05232018482D

 68 76  0  0  1  0  0  0  0  0999 V2000
    5.1625    0.0000    0.0000 O   0  0  0  0  0  0  0  0  0  0  0  0
    4.8177    0.0000    0.0000 C   0  0  0  0  0  0  0  0  0  0  0  0
    5.2944    0.0000    0.0000 C   0  0  0  0  0  0  0  0  0  0  0  0
    4.9496    0.0000    0.0000 C   0  0  0  0  0  0  0  0  0  0  0  0
    5.3206    0.0000    0.0000 C   0  0  0  0  0  0  0  0  0  0  0  0
    6.1279    0.0000    0.0000 O   0  0  0  0  0  0  0  0  0  0  0  0
    6.7638    0.0000    0.0000 C   0  0  0  0  0  0  0  0  0  0  0  0
    6.1825    0.0000    0.0000 C   0  0  0  0  0  0  0  0  0  0  0  0
    5.9793    0.0000    0.0000 C   0  0  0  0  0  0  0  0  0  0  0  0
    5.4355    0.0000    0.0000 C   0  0  0  0  0  0  0  0  0  0  0  0
    6.7492    0.0000    0.0000 C   0  0  0  0  0  0  0  0  0  0  0  0
    6.0952    0.0000    0.0000 C   0  0  0  0  0  0  0  0  0  0  0  0
    4.5498    0.0000    0.0000 H   0  0  0  0  0  0  0  0  0  0  0  0
    4.1281    0.0000    0.0000 C   0  0  0  0  0  0  0  0  0  0  0  0
    3.6514    0.0000    0.0000 C   0  0  0  0  0  0  0  0  0  0  0  0
    2.8299    0.0000    0.0000 C   0  0  0  0  0  0  0  0  0  0  0  0
    2.3532    0.0000    0.0000 C   0  0  0  0  0  0  0  0  0  0  0  0
    1.5318    0.0000    0.0000 C   0  0  0  0  0  0  0  0  0  0  0  0
    1.1870    0.0000    0.0000 C   0  0  0  0  0  0  0  0  0  0  0  0
    0.8422    0.0000    0.0000 H   0  0  0  0  0  0  0  0  0  0  0  0
    1.6637    0.0000    0.0000 C   0  0  0  0  0  0  0  0  0  0  0  0
    2.1404    0.0000    0.0000 C   0  0  0  0  0  0  0  0  0  0  0  0
    1.3189    0.0000    0.0000 C   0  0  0  0  0  0  0  0  0  0  0  0
    0.4974    0.0000    0.0000 C   0  0  0  0  0  0  0  0  0  0  0  0
    0.0207    0.0000    0.0000 C   0  0  0  0  0  0  0  0  0  0  0  0
   -0.8007    0.0000    0.0000 O   0  0  0  0  0  0  0  0  0  0  0  0
   -1.1455    0.0000    0.0000 C   0  0  0  0  0  0  0  0  0  0  0  0
   -0.6688    0.0000    0.0000 C   0  0  0  0  0  0  0  0  0  0  0  0
    0.1527    0.0000    0.0000 O   0  0  0  0  0  0  0  0  0  0  0  0
   -1.0136    0.0000    0.0000 C   0  0  0  0  0  0  0  0  0  0  0  0
   -0.5369    0.0000    0.0000 O   0  0  0  0  0  0  0  0  0  0  0  0
   -1.8351    0.0000    0.0000 C   0  0  0  0  0  0  0  0  0  0  0  0
   -2.1799    0.0000    0.0000 O   0  0  0  0  0  0  0  0  0  0  0  0
   -1.7032    0.0000    0.0000 C   0  0  0  0  0  0  0  0  0  0  0  0
   -0.8817    0.0000    0.0000 O   0  0  0  0  0  0  0  0  0  0  0  0
   -0.4050    0.0000    0.0000 C   0  0  0  0  0  0  0  0  0  0  0  0
    0.4165    0.0000    0.0000 C   0  0  0  0  0  0  0  0  0  0  0  0
   -0.7498    0.0000    0.0000 C   0  0  0  0  0  0  0  0  0  0  0  0
   -0.2731    0.0000    0.0000 O   0  0  0  0  0  0  0  0  0  0  0  0
   -1.5712    0.0000    0.0000 C   0  0  0  0  0  0  0  0  0  0  0  0
   -1.9160    0.0000    0.0000 O   0  0  0  0  0  0  0  0  0  0  0  0
   -2.0479    0.0000    0.0000 C   0  0  0  0  0  0  0  0  0  0  0  0
   -2.8694    0.0000    0.0000 O   0  0  0  0  0  0  0  0  0  0  0  0
   -2.3118    0.0000    0.0000 C   0  0  0  0  0  0  0  0  0  0  0  0
   -3.1332    0.0000    0.0000 C   0  0  0  0  0  0  0  0  0  0  0  0
   -3.4780    0.0000    0.0000 O   0  0  0  0  0  0  0  0  0  0  0  0
   -4.2995    0.0000    0.0000 C   0  0  0  0  0  0  0  0  0  0  0  0
   -4.6443    0.0000    0.0000 C   0  0  0  0  0  0  0  0  0  0  0  0
   -4.1676    0.0000    0.0000 O   0  0  0  0  0  0  0  0  0  0  0  0
   -5.4658    0.0000    0.0000 C   0  0  0  0  0  0  0  0  0  0  0  0
   -5.8104    0.0000    0.0000 O   0  0  0  0  0  0  0  0  0  0  0  0
   -5.9424    0.0000    0.0000 C   0  0  0  0  0  0  0  0  0  0  0  0
   -6.7638    0.0000    0.0000 O   0  0  0  0  0  0  0  0  0  0  0  0
   -5.5977    0.0000    0.0000 C   0  0  0  0  0  0  0  0  0  0  0  0
   -6.0743    0.0000    0.0000 C   0  0  0  0  0  0  0  0  0  0  0  0
   -5.7295    0.0000    0.0000 O   0  0  0  0  0  0  0  0  0  0  0  0
   -4.7762    0.0000    0.0000 O   0  0  0  0  0  0  0  0  0  0  0  0
   -1.9670    0.0000    0.0000 O   0  0  0  0  0  0  0  0  0  0  0  0
    0.3655    0.0000    0.0000 C   0  0  0  0  0  0  0  0  0  0  0  0
   -0.3715    0.0000    0.0000 C   0  0  0  0  0  0  0  0  0  0  0  0
    0.2607    0.0000    0.0000 C   0  0  0  0  0  0  0  0  0  0  0  0
    3.1747    0.0000    0.0000 C   0  0  0  0  0  0  0  0  0  0  0  0
    2.4852    0.0000    0.0000 C   0  0  0  0  0  0  0  0  0  0  0  0
    2.0085    0.0000    0.0000 H   0  0  0  0  0  0  0  0  0  0  0  0
    2.9619    0.0000    0.0000 C   0  0  0  0  0  0  0  0  0  0  0  0
    3.7833    0.0000    0.0000 C   0  0  0  0  0  0  0  0  0  0  0  0
    3.6615    0.0000    0.0000 C   0  0  0  0  0  0  0  0  0  0  0  0
    3.9962    0.0000    0.0000 C   0  0  0  0  0  0  0  0  0  0  0  0
  2  1  1  6      
  2  3  1  0      
  3  4  1  0      
  4  5  1  0      
  5  6  1  0      
  6  7  1  0      
  5  8  1  0      
  8  9  1  0      
  8 10  1  0      
  8 11  1  0      
  7 11  1  0      
 11 12  1  0      
  3 12  1  6      
  4 13  1  6      
  4 14  1  0      
 14 15  1  0      
 15 16  1  0      
 16 17  1  0      
 17 18  1  0      
 18 19  1  0      
 19 20  1  1      
 19 21  1  0      
 21 22  1  6      
 21 23  1  0      
 23 24  1  0      
 24 25  1  0      
 25 26  1  6      
 27 26  1  1      
 27 28  1  0      
 28 29  1  6      
 28 30  1  0      
 30 31  1  1      
 30 32  1  0      
 32 33  1  6      
 34 33  1  1      
 34 35  1  0      
 35 36  1  0      
 36 37  1  1      
 36 38  1  0      
 38 39  1  6      
 38 40  1  0      
 40 41  1  1      
 40 42  1  0      
 34 42  1  0      
 42 43  1  1      
 32 44  1  0      
 44 45  1  1      
 45 46  1  0      
 47 46  1  1      
 47 48  1  0      
 48 49  1  6      
 48 50  1  0      
 50 51  1  1      
 50 52  1  0      
 52 53  1  6      
 52 54  1  0      
 54 55  1  1      
 55 56  1  0      
 54 57  1  0      
 47 57  1  0      
 44 58  1  0      
 27 58  1  0      
 25 59  1  0      
 19 59  1  0      
 59 60  1  0      
 59 61  1  0      
 16 62  1  6      
 16 63  1  0      
 21 63  1  0      
 63 64  1  1      
 63 65  1  0      
 65 66  2  0      
 14 66  1  6      
 15 67  1  1      
 15 68  1  0      
  2 68  1  0      
M  END
>  <Bioactivity>
Saikosaponin C efficiently inhibited LPS-induced apoptotic cell death via inhibition of caspase-3 activation and caspase-3-mediated-FAK degradation.

>  <CAS>
20736-08-7

>  <Col>
10

>  <Formula>
C48H72O17

>  <ID>
T3914

>  <Index>
809

>  <MOLENAME>
Saikosaponin C

>  <MolWt>
927.14

>  <Pathways>
Apoptosis

>  <Plate>
PLATE 011

>  <QR code>
1151480601

>  <Receptor>
caspase-3

>  <Reference>
1.Lee TH1, Chang J2, Kim BM3.Saikosaponin C inhibits lipopolysaccharide-induced apoptosis by suppressing caspase-3 activation and subsequent degradation of focal adhesion kinase in human umbilical vei
n endothelial cells.Biochem Biophys Res Commun. 2014 Mar 14;445(3):615-21. 

>  <Row>
A

>  <SMILES>
O[C@@H]1[C@H]2[C@](C(OC3)C(C)(C)C3C2)([H])[C@H]4[C@@]([C@@](CC[C@]5([H])[C@]6(C)CC[C@H](O[C@H]7[C@H](O)[C@@H](O)[C@H](O[C@H]8O[C@@H](C)[C@H](O)[C@@H](O)[C@H]8O)[C@@H](CO[C@H]9[C@H](O)[C@@H](O)[C@H](O)
[C@@H](CO)O9)O7)C5(C)C)(C)[C@]6([H])C=C4)(C)C1

>  <Target>
Caspase inhibitor

>  <Weight>
10.1mg

$$$$
Lab-1.sdf
  ChemDraw05232018482D

 22 24  0  0  0  0  0  0  0  0999 V2000
   -3.2151    0.0000    0.0000 C   0  0  0  0  0  0  0  0  0  0  0  0
   -3.2151    0.0000    0.0000 O   0  0  0  0  0  0  0  0  0  0  0  0
   -2.5006    0.0000    0.0000 C   0  0  0  0  0  0  0  0  0  0  0  0
   -2.5006    0.0000    0.0000 C   0  0  0  0  0  0  0  0  0  0  0  0
   -1.7862    0.0000    0.0000 C   0  0  0  0  0  0  0  0  0  0  0  0
   -1.0717    0.0000    0.0000 C   0  0  0  0  0  0  0  0  0  0  0  0
   -1.0717    0.0000    0.0000 C   0  0  0  0  0  0  0  0  0  0  0  0
   -1.7862    0.0000    0.0000 C   0  0  0  0  0  0  0  0  0  0  0  0
   -0.3572    0.0000    0.0000 C   0  0  0  0  0  0  0  0  0  0  0  0
   -0.3572    0.0000    0.0000 C   0  0  0  0  0  0  0  0  0  0  0  0
    0.3572    0.0000    0.0000 C   0  0  0  0  0  0  0  0  0  0  0  0
    0.3572    0.0000    0.0000 O   0  0  0  0  0  0  0  0  0  0  0  0
    1.0717    0.0000    0.0000 C   0  0  0  0  0  0  0  0  0  0  0  0
    1.7862    0.0000    0.0000 C   0  0  0  0  0  0  0  0  0  0  0  0
    2.5007    0.0000    0.0000 C   0  0  0  0  0  0  0  0  0  0  0  0
    2.5007    0.0000    0.0000 C   0  0  0  0  0  0  0  0  0  0  0  0
    1.7862    0.0000    0.0000 C   0  0  0  0  0  0  0  0  0  0  0  0
    1.0717    0.0000    0.0000 C   0  0  0  0  0  0  0  0  0  0  0  0
    0.3572    0.0000    0.0000 O   0  0  0  0  0  0  0  0  0  0  0  0
    3.2151    0.0000    0.0000 O   0  0  0  0  0  0  0  0  0  0  0  0
    1.7862    0.0000    0.0000 O   0  0  0  0  0  0  0  0  0  0  0  0
   -1.0717    0.0000    0.0000 O   0  0  0  0  0  0  0  0  0  0  0  0
  1  2  1  0      
  2  3  1  0      
  3  4  2  0      
  4  5  1  0      
  5  6  2  0      
  6  7  1  0      
  7  8  2  0      
  3  8  1  0      
  6  9  1  0      
  9 10  2  0      
 10 11  1  0      
 11 12  2  0      
 11 13  1  0      
 13 14  2  0      
 14 15  1  0      
 15 16  2  0      
 16 17  1  0      
 17 18  2  0      
 13 18  1  0      
 18 19  1  0      
  9 19  1  0      
 16 20  1  0      
 14 21  1  0      
 10 22  1  0      
M  END
>  <Bioactivity>
Kaempferide triglycoside inhibits the proliferation of native and estrogen receptor beta overexpressing colon cancer cells through a mechanism not mediated by ligand binding dependent estrogen recepto
r activation.

>  <CAS>
491-54-3

>  <Col>
11

>  <Formula>
C16H12O6

>  <ID>
T3806

>  <Index>
810

>  <MOLENAME>
kaempferide

>  <MolWt>
300.266

>  <Pathways>
Endocrinology/ Hormones

>  <Plate>
PLATE 011

>  <QR code>
1151480600

>  <Receptor>
ER

>  <Reference>
1. Song P,et al. [Comparison of effects of kaempferide and anhydroicaritin on biomineralization of cultured osteoblasts]. Yao Xue Xue Bao. 2012 Jul;47(7):890-6.

>  <Row>
A

>  <SMILES>
COC1=CC=C(C=C1)C2=C(C(=O)C3=C(C=C(C=C3O2)O)O)O

>  <Target>
ER

>  <Weight>
10.3mg

$$$$
Lab-1.sdf
  ChemDraw05232018482D

 55 59  0  0  0  0  0  0  0  0999 V2000
   -3.2151    0.0000    0.0000 C   0  0  0  0  0  0  0  0  0  0  0  0
   -3.2151    0.0000    0.0000 C   0  0  0  0  0  0  0  0  0  0  0  0
   -3.9295    0.0000    0.0000 C   0  0  0  0  0  0  0  0  0  0  0  0
   -3.9295    0.0000    0.0000 C   0  0  0  0  0  0  0  0  0  0  0  0
   -3.2151    0.0000    0.0000 C   0  0  0  0  0  0  0  0  0  0  0  0
   -2.5006    0.0000    0.0000 C   0  0  0  0  0  0  0  0  0  0  0  0
   -2.5006    0.0000    0.0000 O   0  0  0  0  0  0  0  0  0  0  0  0
   -1.7861    0.0000    0.0000 O   0  0  0  0  0  0  0  0  0  0  0  0
   -1.0716    0.0000    0.0000 C   0  0  0  0  0  0  0  0  0  0  0  0
   -1.0716    0.0000    0.0000 C   0  0  0  0  0  0  0  0  0  0  0  0
   -0.3573    0.0000    0.0000 C   0  0  0  0  0  0  0  0  0  0  0  0
    0.3573    0.0000    0.0000 O   0  0  0  0  0  0  0  0  0  0  0  0
    0.3573    0.0000    0.0000 C   0  0  0  0  0  0  0  0  0  0  0  0
   -0.3573    0.0000    0.0000 C   0  0  0  0  0  0  0  0  0  0  0  0
   -0.3573    0.0000    0.0000 O   0  0  0  0  0  0  0  0  0  0  0  0
   -1.0716    0.0000    0.0000 C   0  0  0  0  0  0  0  0  0  0  0  0
   -1.7861    0.0000    0.0000 O   0  0  0  0  0  0  0  0  0  0  0  0
   -1.0716    0.0000    0.0000 C   0  0  0  0  0  0  0  0  0  0  0  0
   -0.3573    0.0000    0.0000 C   0  0  0  0  0  0  0  0  0  0  0  0
   -0.3573    0.0000    0.0000 C   0  0  0  0  0  0  0  0  0  0  0  0
    0.3573    0.0000    0.0000 C   0  0  0  0  0  0  0  0  0  0  0  0
    0.3573    0.0000    0.0000 C   0  0  0  0  0  0  0  0  0  0  0  0
   -0.3573    0.0000    0.0000 C   0  0  0  0  0  0  0  0  0  0  0  0
   -1.0716    0.0000    0.0000 C   0  0  0  0  0  0  0  0  0  0  0  0
   -1.0716    0.0000    0.0000 C   0  0  0  0  0  0  0  0  0  0  0  0
   -0.3573    0.0000    0.0000 O   0  0  0  0  0  0  0  0  0  0  0  0
    1.0717    0.0000    0.0000 O   0  0  0  0  0  0  0  0  0  0  0  0
    1.0717    0.0000    0.0000 C   0  0  0  0  0  0  0  0  0  0  0  0
    1.0717    0.0000    0.0000 C   0  0  0  0  0  0  0  0  0  0  0  0
    1.7861    0.0000    0.0000 O   0  0  0  0  0  0  0  0  0  0  0  0
    2.5006    0.0000    0.0000 C   0  0  0  0  0  0  0  0  0  0  0  0
    3.2151    0.0000    0.0000 C   0  0  0  0  0  0  0  0  0  0  0  0
    3.9296    0.0000    0.0000 C   0  0  0  0  0  0  0  0  0  0  0  0
    3.9296    0.0000    0.0000 C   0  0  0  0  0  0  0  0  0  0  0  0
    3.2151    0.0000    0.0000 C   0  0  0  0  0  0  0  0  0  0  0  0
    2.5006    0.0000    0.0000 O   0  0  0  0  0  0  0  0  0  0  0  0
    4.6440    0.0000    0.0000 O   0  0  0  0  0  0  0  0  0  0  0  0
    4.6440    0.0000    0.0000 O   0  0  0  0  0  0  0  0  0  0  0  0
    3.2151    0.0000    0.0000 O   0  0  0  0  0  0  0  0  0  0  0  0
   -0.3573    0.0000    0.0000 O   0  0  0  0  0  0  0  0  0  0  0  0
    0.3573    0.0000    0.0000 C   0  0  0  0  0  0  0  0  0  0  0  0
    0.3573    0.0000    0.0000 C   0  0  0  0  0  0  0  0  0  0  0  0
    1.0717    0.0000    0.0000 C   0  0  0  0  0  0  0  0  0  0  0  0
    1.0717    0.0000    0.0000 C   0  0  0  0  0  0  0  0  0  0  0  0
    1.7861    0.0000    0.0000 C   0  0  0  0  0  0  0  0  0  0  0  0
    2.5006    0.0000    0.0000 C   0  0  0  0  0  0  0  0  0  0  0  0
    2.5006    0.0000    0.0000 C   0  0  0  0  0  0  0  0  0  0  0  0
    1.7861    0.0000    0.0000 C   0  0  0  0  0  0  0  0  0  0  0  0
    3.2151    0.0000    0.0000 O   0  0  0  0  0  0  0  0  0  0  0  0
    3.9296    0.0000    0.0000 C   0  0  0  0  0  0  0  0  0  0  0  0
    1.7861    0.0000    0.0000 O   0  0  0  0  0  0  0  0  0  0  0  0
   -1.7861    0.0000    0.0000 O   0  0  0  0  0  0  0  0  0  0  0  0
   -3.2151    0.0000    0.0000 O   0  0  0  0  0  0  0  0  0  0  0  0
   -4.6440    0.0000    0.0000 O   0  0  0  0  0  0  0  0  0  0  0  0
   -4.6440    0.0000    0.0000 O   0  0  0  0  0  0  0  0  0  0  0  0
  1  2  1  0      
  2  3  1  0      
  3  4  1  0      
  4  5  1  0      
  5  6  1  0      
  6  7  1  0      
  2  7  1  0      
  6  8  1  0      
  8  9  1  0      
  9 10  1  0      
 10 11  1  0      
 11 12  1  0      
 12 13  1  0      
 13 14  1  0      
  9 14  1  0      
 14 15  1  0      
 15 16  1  0      
 16 17  2  0      
 18 16  1  4      
 18 19  2  0      
 19 20  1  0      
 20 21  2  0      
 21 22  1  0      
 22 23  2  0      
 23 24  1  0      
 24 25  2  0      
 20 25  1  0      
 23 26  1  0      
 22 27  1  0      
 27 28  1  0      
 13 29  1  0      
 29 30  1  0      
 30 31  1  0      
 31 32  1  0      
 32 33  1  0      
 33 34  1  0      
 34 35  1  0      
 35 36  1  0      
 31 36  1  0      
 34 37  1  0      
 33 38  1  0      
 32 39  1  0      
 11 40  1  0      
 40 41  1  0      
 41 42  1  0      
 42 43  1  0      
 43 44  2  0      
 44 45  1  0      
 45 46  2  0      
 46 47  1  0      
 47 48  2  0      
 43 48  1  0      
 46 49  1  0      
 49 50  1  0      
 45 51  1  0      
 10 52  1  0      
  5 53  1  0      
  4 54  1  0      
  3 55  1  0      
M  END
>  <Bioactivity>
Angoroside C is a Potential anti-inflammatory compound. Inhibitor of prostaglandin E2?release in mouse peritoneal macrophages?in vitro. Shows potent antioxidative activity in reducing the oxidized OH 
adducts of dAMP and dGMP. Reveals some trypanocidal potential.

>  <CAS>
115909-22-3

>  <Col>
2

>  <Formula>
C36H48O19

>  <ID>
T3903

>  <Index>
811

>  <MOLENAME>
Angoroside C

>  <MolWt>
784.75

>  <Pathways>
Endocrinology/ Hormones

>  <Plate>
PLATE 011

>  <QR code>
1151480588

>  <Receptor>
prostaglandin E2

>  <Reference>
1.D¨ªaz AM1, Abad MJ, Fern¨¢ndez L,et al.Phenylpropanoid glycosides from Scrophularia scorodonia: in vitro anti-inflammatory activity.Life Sci. 2004 Apr 2;74(20):2515-26.

>  <Row>
B

>  <SMILES>
CC1C(C(C(C(O1)OC2C(C(OC(C2OC(=O)C=CC3=CC(=C(C=C3)O)OC)COC4C(C(C(CO4)O)O)O)OCCC5=CC(=C(C=C5)OC)O)O)O)O)O

>  <Target>
Prostaglandin inhibitor

>  <Weight>
10.4mg

$$$$
Lab-1.sdf
  ChemDraw05232018482D

 24 27  0  0  0  0  0  0  0  0999 V2000
    2.0998    0.0000    0.0000 C   0  0  0  0  0  0  0  0  0  0  0  0
    1.2801    0.0000    0.0000 O   0  0  0  0  0  0  0  0  0  0  0  0
    0.9513    0.0000    0.0000 C   0  0  0  0  0  0  0  0  0  0  0  0
    1.7726    0.0000    0.0000 C   0  0  0  0  0  0  0  0  0  0  0  0
    2.5594    0.0000    0.0000 N   0  0  0  0  0  0  0  0  0  0  0  0
    1.9513    0.0000    0.0000 C   0  0  0  0  0  0  0  0  0  0  0  0
    1.2406    0.0000    0.0000 C   0  0  0  0  0  0  0  0  0  0  0  0
    0.6226    0.0000    0.0000 N   0  0  0  0  0  0  0  0  0  0  0  0
   -0.1987    0.0000    0.0000 C   0  0  0  0  0  0  0  0  0  0  0  0
   -0.3775    0.0000    0.0000 C   0  0  0  0  0  0  0  0  0  0  0  0
    0.3333    0.0000    0.0000 C   0  0  0  0  0  0  0  0  0  0  0  0
    0.4122    0.0000    0.0000 C   0  0  0  0  0  0  0  0  0  0  0  0
    1.1628    0.0000    0.0000 O   0  0  0  0  0  0  0  0  0  0  0  0
    1.2416    0.0000    0.0000 C   0  0  0  0  0  0  0  0  0  0  0  0
    1.9923    0.0000    0.0000 N   0  0  0  0  0  0  0  0  0  0  0  0
    0.5699    0.0000    0.0000 O   0  0  0  0  0  0  0  0  0  0  0  0
   -1.1644    0.0000    0.0000 C   0  0  0  0  0  0  0  0  0  0  0  0
   -1.3432    0.0000    0.0000 O   0  0  0  0  0  0  0  0  0  0  0  0
   -1.7725    0.0000    0.0000 C   0  0  0  0  0  0  0  0  0  0  0  0
   -2.5594    0.0000    0.0000 N   0  0  0  0  0  0  0  0  0  0  0  0
   -1.5937    0.0000    0.0000 C   0  0  0  0  0  0  0  0  0  0  0  0
   -2.2018    0.0000    0.0000 C   0  0  0  0  0  0  0  0  0  0  0  0
   -0.8068    0.0000    0.0000 C   0  0  0  0  0  0  0  0  0  0  0  0
   -0.6281    0.0000    0.0000 O   0  0  0  0  0  0  0  0  0  0  0  0
  1  2  1  0      
  3  2  1  1      
  3  4  1  0      
  4  5  1  6      
  6  5  1  6      
  4  6  1  0      
  6  7  1  0      
  7  8  1  0      
  3  8  1  0      
  8  9  1  0      
  9 10  2  0      
 10 11  1  0      
  3 11  1  0      
 11 12  1  6      
 12 13  1  0      
 13 14  1  0      
 14 15  1  0      
 14 16  2  0      
 10 17  1  0      
 17 18  2  0      
 17 19  1  0      
 19 20  1  0      
 19 21  2  0      
 21 22  1  0      
 21 23  1  0      
  9 23  1  0      
 23 24  2  0      
M  END
>  <Bioactivity>
Mitomycin C is an antineoplastic antibiotic by inhibiting DNA synthesis, used to treat different cancers.

>  <CAS>
50-07-7

>  <Col>
3

>  <Formula>
C15H18N4O5

>  <ID>
T6890

>  <Index>
812

>  <MOLENAME>
Mitomycin C

>  <MolWt>
334.37

>  <Pathways>
DNA Damage 

>  <Plate>
PLATE 011

>  <QR code>
1151480589

>  <Receptor>
DNA synthesis

>  <Reference>
1. Ben-Yehoyada M, et al. Mol Cell. 2009, 35(5), 704-715.

>  <Row>
B

>  <SMILES>
CO[C@]12[C@H]3N[C@H]3CN1C1=C([C@H]2COC(N)=O)C(=O)C(N)=C(C)C1=O |r,c:10,t:22|

>  <Target>
DNA/RNA Synthesis inhibitor  

>  <Weight>
10.2mg

$$$$
Lab-1.sdf
  ChemDraw05232018482D

 13 13  0  0  0  0  0  0  0  0999 V2000
   -1.0717    0.0000    0.0000 C   0  0  0  0  0  0  0  0  0  0  0  0
   -1.0717    0.0000    0.0000 O   0  0  0  0  0  0  0  0  0  0  0  0
   -0.3572    0.0000    0.0000 C   0  0  0  0  0  0  0  0  0  0  0  0
    0.3573    0.0000    0.0000 O   0  0  0  0  0  0  0  0  0  0  0  0
   -0.3572    0.0000    0.0000 C   0  0  0  0  0  0  0  0  0  0  0  0
    0.3573    0.0000    0.0000 C   0  0  0  0  0  0  0  0  0  0  0  0
    0.3573    0.0000    0.0000 C   0  0  0  0  0  0  0  0  0  0  0  0
    1.0717    0.0000    0.0000 C   0  0  0  0  0  0  0  0  0  0  0  0
    1.0717    0.0000    0.0000 C   0  0  0  0  0  0  0  0  0  0  0  0
    0.3573    0.0000    0.0000 C   0  0  0  0  0  0  0  0  0  0  0  0
   -0.3572    0.0000    0.0000 C   0  0  0  0  0  0  0  0  0  0  0  0
   -0.3572    0.0000    0.0000 C   0  0  0  0  0  0  0  0  0  0  0  0
    0.3573    0.0000    0.0000 O   0  0  0  0  0  0  0  0  0  0  0  0
  1  2  1  0      
  2  3  1  0      
  3  4  2  0      
  5  3  1  4      
  5  6  2  0      
  6  7  1  0      
  7  8  2  0      
  8  9  1  0      
  9 10  2  0      
 10 11  1  0      
 11 12  2  0      
  7 12  1  0      
 10 13  1  0      
M  END
>  <Bioactivity>
Cinnamic acid derivative used in structure-antifungal activity relationship study against Aspergillus flavus, Aspergillus terreus, and Aspergillus niger. An antifungal agent.

>  <CAS>
19367-38-5

>  <Col>
4

>  <Formula>
C10H10O3

>  <ID>
T3733

>  <Index>
813

>  <MOLENAME>
Methyl 4-hydroxycinnamate

>  <MolWt>
178.18

>  <Pathways>
Others

>  <Plate>
PLATE 011

>  <QR code>
1151480590

>  <Receptor>
Others

>  <Reference>
1.Tan EM, et al. J Phys Chem B. 2013 May 2;117(17):4798-805.

>  <Row>
B

>  <SMILES>
COC(=O)C=CC1=CC=C(C=C1)O

>  <Target>
Others

>  <Weight>
10.3mg

$$$$
Lab-1.sdf
  ChemDraw05232018482D

 75 82  0  0  0  0  0  0  0  0999 V2000
    3.8447    0.0000    0.0000 C   0  0  0  0  0  0  0  0  0  0  0  0
    3.9576    0.0000    0.0000 C   0  0  0  0  0  0  0  0  0  0  0  0
    3.3062    0.0000    0.0000 C   0  0  0  0  0  0  0  0  0  0  0  0
    3.4191    0.0000    0.0000 C   0  0  0  0  0  0  0  0  0  0  0  0
    2.7677    0.0000    0.0000 C   0  0  0  0  0  0  0  0  0  0  0  0
    2.8806    0.0000    0.0000 C   0  0  0  0  0  0  0  0  0  0  0  0
    2.2293    0.0000    0.0000 C   0  0  0  0  0  0  0  0  0  0  0  0
    1.5778    0.0000    0.0000 C   0  0  0  0  0  0  0  0  0  0  0  0
    1.7228    0.0000    0.0000 C   0  0  0  0  0  0  0  0  0  0  0  0
    1.9521    0.0000    0.0000 C   0  0  0  0  0  0  0  0  0  0  0  0
    1.2693    0.0000    0.0000 C   0  0  0  0  0  0  0  0  0  0  0  0
    0.6179    0.0000    0.0000 C   0  0  0  0  0  0  0  0  0  0  0  0
    0.8982    0.0000    0.0000 C   0  0  0  0  0  0  0  0  0  0  0  0
    0.3664    0.0000    0.0000 C   0  0  0  0  0  0  0  0  0  0  0  0
   -0.4457    0.0000    0.0000 C   0  0  0  0  0  0  0  0  0  0  0  0
   -0.7260    0.0000    0.0000 C   0  0  0  0  0  0  0  0  0  0  0  0
   -0.1942    0.0000    0.0000 C   0  0  0  0  0  0  0  0  0  0  0  0
   -0.4745    0.0000    0.0000 C   0  0  0  0  0  0  0  0  0  0  0  0
   -1.2866    0.0000    0.0000 C   0  0  0  0  0  0  0  0  0  0  0  0
   -1.8184    0.0000    0.0000 C   0  0  0  0  0  0  0  0  0  0  0  0
   -1.5381    0.0000    0.0000 C   0  0  0  0  0  0  0  0  0  0  0  0
   -2.0699    0.0000    0.0000 C   0  0  0  0  0  0  0  0  0  0  0  0
   -2.8821    0.0000    0.0000 C   0  0  0  0  0  0  0  0  0  0  0  0
   -3.1624    0.0000    0.0000 C   0  0  0  0  0  0  0  0  0  0  0  0
   -2.6306    0.0000    0.0000 C   0  0  0  0  0  0  0  0  0  0  0  0
   -3.2424    0.0000    0.0000 C   0  0  0  0  0  0  0  0  0  0  0  0
   -2.5138    0.0000    0.0000 C   0  0  0  0  0  0  0  0  0  0  0  0
   -3.9746    0.0000    0.0000 O   0  0  0  0  0  0  0  0  0  0  0  0
   -4.2549    0.0000    0.0000 C   0  0  0  0  0  0  0  0  0  0  0  0
   -5.0670    0.0000    0.0000 C   0  0  0  0  0  0  0  0  0  0  0  0
   -5.3473    0.0000    0.0000 C   0  0  0  0  0  0  0  0  0  0  0  0
   -4.8155    0.0000    0.0000 C   0  0  0  0  0  0  0  0  0  0  0  0
   -4.0033    0.0000    0.0000 C   0  0  0  0  0  0  0  0  0  0  0  0
   -3.7230    0.0000    0.0000 O   0  0  0  0  0  0  0  0  0  0  0  0
   -3.4715    0.0000    0.0000 C   0  0  0  0  0  0  0  0  0  0  0  0
   -2.6594    0.0000    0.0000 O   0  0  0  0  0  0  0  0  0  0  0  0
   -5.0958    0.0000    0.0000 O   0  0  0  0  0  0  0  0  0  0  0  0
   -6.1594    0.0000    0.0000 O   0  0  0  0  0  0  0  0  0  0  0  0
   -5.5988    0.0000    0.0000 O   0  0  0  0  0  0  0  0  0  0  0  0
   -6.4109    0.0000    0.0000 C   0  0  0  0  0  0  0  0  0  0  0  0
   -6.9428    0.0000    0.0000 C   0  0  0  0  0  0  0  0  0  0  0  0
   -7.7550    0.0000    0.0000 C   0  0  0  0  0  0  0  0  0  0  0  0
   -8.0353    0.0000    0.0000 C   0  0  0  0  0  0  0  0  0  0  0  0
   -7.5034    0.0000    0.0000 C   0  0  0  0  0  0  0  0  0  0  0  0
   -6.6913    0.0000    0.0000 O   0  0  0  0  0  0  0  0  0  0  0  0
   -7.7837    0.0000    0.0000 C   0  0  0  0  0  0  0  0  0  0  0  0
   -8.5959    0.0000    0.0000 O   0  0  0  0  0  0  0  0  0  0  0  0
   -8.8474    0.0000    0.0000 O   0  0  0  0  0  0  0  0  0  0  0  0
   -8.2868    0.0000    0.0000 O   0  0  0  0  0  0  0  0  0  0  0  0
   -6.6625    0.0000    0.0000 O   0  0  0  0  0  0  0  0  0  0  0  0
   -1.2578    0.0000    0.0000 C   0  0  0  0  0  0  0  0  0  0  0  0
    0.6467    0.0000    0.0000 O   0  0  0  0  0  0  0  0  0  0  0  0
    0.4203    0.0000    0.0000 C   0  0  0  0  0  0  0  0  0  0  0  0
    2.7356    0.0000    0.0000 O   0  0  0  0  0  0  0  0  0  0  0  0
    3.5529    0.0000    0.0000 C   0  0  0  0  0  0  0  0  0  0  0  0
    3.8638    0.0000    0.0000 C   0  0  0  0  0  0  0  0  0  0  0  0
    4.6810    0.0000    0.0000 C   0  0  0  0  0  0  0  0  0  0  0  0
    5.1874    0.0000    0.0000 C   0  0  0  0  0  0  0  0  0  0  0  0
    4.8765    0.0000    0.0000 C   0  0  0  0  0  0  0  0  0  0  0  0
    4.0592    0.0000    0.0000 O   0  0  0  0  0  0  0  0  0  0  0  0
    5.3828    0.0000    0.0000 C   0  0  0  0  0  0  0  0  0  0  0  0
    6.2001    0.0000    0.0000 O   0  0  0  0  0  0  0  0  0  0  0  0
    6.7065    0.0000    0.0000 C   0  0  0  0  0  0  0  0  0  0  0  0
    7.5238    0.0000    0.0000 C   0  0  0  0  0  0  0  0  0  0  0  0
    8.0301    0.0000    0.0000 C   0  0  0  0  0  0  0  0  0  0  0  0
    7.7192    0.0000    0.0000 C   0  0  0  0  0  0  0  0  0  0  0  0
    6.9020    0.0000    0.0000 C   0  0  0  0  0  0  0  0  0  0  0  0
    6.3955    0.0000    0.0000 O   0  0  0  0  0  0  0  0  0  0  0  0
    8.2256    0.0000    0.0000 O   0  0  0  0  0  0  0  0  0  0  0  0
    8.8474    0.0000    0.0000 O   0  0  0  0  0  0  0  0  0  0  0  0
    7.8347    0.0000    0.0000 O   0  0  0  0  0  0  0  0  0  0  0  0
    6.0046    0.0000    0.0000 O   0  0  0  0  0  0  0  0  0  0  0  0
    4.9919    0.0000    0.0000 O   0  0  0  0  0  0  0  0  0  0  0  0
    3.3574    0.0000    0.0000 O   0  0  0  0  0  0  0  0  0  0  0  0
    2.5420    0.0000    0.0000 C   0  0  0  0  0  0  0  0  0  0  0  0
  1  2  1  0      
  2  3  1  0      
  3  4  2  0      
  4  5  1  4      
  5  6  1  0      
  6  7  1  0      
  7  8  1  0      
  7  9  1  0      
  9 10  1  0      
 10 11  1  0      
 11 12  1  0      
 12 13  1  0      
  9 13  1  0      
 13 14  1  0      
 14 15  1  0      
 15 16  1  0      
 16 17  1  0      
 12 17  1  0      
 17 18  1  0      
 18 19  1  0      
 19 20  1  0      
 20 21  1  0      
 16 21  1  0      
 21 22  1  0      
 22 23  1  0      
 23 24  1  0      
 24 25  1  0      
 20 25  1  0      
 25 26  1  0      
 25 27  1  0      
 24 28  1  0      
 28 29  1  0      
 29 30  1  0      
 30 31  1  0      
 31 32  1  0      
 32 33  1  0      
 33 34  1  0      
 29 34  1  0      
 33 35  1  0      
 35 36  1  0      
 32 37  1  0      
 31 38  1  0      
 30 39  1  0      
 39 40  1  0      
 40 41  1  0      
 41 42  1  0      
 42 43  1  0      
 43 44  1  0      
 44 45  1  0      
 40 45  1  0      
 44 46  1  0      
 46 47  1  0      
 43 48  1  0      
 42 49  1  0      
 41 50  1  0      
 21 51  1  0      
 14 52  1  0      
 12 53  1  0      
  7 54  1  0      
 54 55  1  0      
 55 56  1  0      
 56 57  1  0      
 57 58  1  0      
 58 59  1  0      
 59 60  1  0      
 55 60  1  0      
 59 61  1  0      
 61 62  1  0      
 62 63  1  0      
 63 64  1  0      
 64 65  1  0      
 65 66  1  0      
 66 67  1  0      
 67 68  1  0      
 63 68  1  0      
 66 69  1  0      
 65 70  1  0      
 64 71  1  0      
 58 72  1  0      
 57 73  1  0      
 56 74  1  0      
  3 75  1  0      
M  END
>  <Bioactivity>
Ginsenoside Rb3 is a natural triterpenoid saponin; has various pharmacological effects.

>  <CAS>
68406-26-8

>  <Col>
5

>  <Formula>
C53H90O22 

>  <ID>
T3918

>  <Index>
814

>  <MOLENAME>
Ginsenoside Rb3

>  <MolWt>
1079.2

>  <Pathways>
NF-¦ÊB

>  <Plate>
PLATE 011

>  <QR code>
1151480591

>  <Receptor>
Others

>  <Reference>
1. Ma L, et al. Ginsenoside Rb3 protects cardiomyocytes against ischemia-reperfusion injury via the inhibition of JNK-mediated NF-¦ÊB pathway: a mouse cardiomyocyte model. PLoS One. 2014 Aug 1;9(8):e1
03628.

>  <Row>
B

>  <SMILES>
CCC(=CCCC(C)(C1CCC2(C1C(CC3C2CCC4C3(CCC(C4(C)C)OC5C(C(C(C(O5)CO)O)O)OC6C(C(C(C(O6)CO)O)O)O)C)O)C)OC7C(C(C(C(O7)COC8C(C(C(CO8)O)O)O)O)O)O)C

>  <Target>
NF-¦ÊB

>  <Weight>
10.2mg

$$$$
Lab-1.sdf
  ChemDraw05232018482D

 23 24  0  0  0  0  0  0  0  0999 V2000
   -1.4290    0.0000    0.0000 C   0  0  0  0  0  0  0  0  0  0  0  0
   -1.4290    0.0000    0.0000 C   0  0  0  0  0  0  0  0  0  0  0  0
   -0.7145    0.0000    0.0000 C   0  0  0  0  0  0  0  0  0  0  0  0
   -0.7145    0.0000    0.0000 C   0  0  0  0  0  0  0  0  0  0  0  0
   -1.4290    0.0000    0.0000 C   0  0  0  0  0  0  0  0  0  0  0  0
   -2.1433    0.0000    0.0000 N   0  0  0  0  0  0  0  0  0  0  0  0
   -0.0000    0.0000    0.0000 C   0  0  0  0  0  0  0  0  0  0  0  0
   -0.0000    0.0000    0.0000 C   0  0  0  0  0  0  0  0  0  0  0  0
   -0.7145    0.0000    0.0000 C   0  0  0  0  0  0  0  0  0  0  0  0
   -0.7145    0.0000    0.0000 O   0  0  0  0  0  0  0  0  0  0  0  0
    0.7145    0.0000    0.0000 O   0  0  0  0  0  0  0  0  0  0  0  0
    0.7145    0.0000    0.0000 O   0  0  0  0  0  0  0  0  0  0  0  0
    0.7145    0.0000    0.0000 C   0  0  0  0  0  0  0  0  0  0  0  0
    1.4289    0.0000    0.0000 C   0  0  0  0  0  0  0  0  0  0  0  0
    1.4289    0.0000    0.0000 C   0  0  0  0  0  0  0  0  0  0  0  0
    0.7145    0.0000    0.0000 C   0  0  0  0  0  0  0  0  0  0  0  0
   -0.0000    0.0000    0.0000 C   0  0  0  0  0  0  0  0  0  0  0  0
   -0.0000    0.0000    0.0000 O   0  0  0  0  0  0  0  0  0  0  0  0
   -0.7145    0.0000    0.0000 C   0  0  0  0  0  0  0  0  0  0  0  0
   -0.7145    0.0000    0.0000 O   0  0  0  0  0  0  0  0  0  0  0  0
    0.7145    0.0000    0.0000 O   0  0  0  0  0  0  0  0  0  0  0  0
    2.1433    0.0000    0.0000 O   0  0  0  0  0  0  0  0  0  0  0  0
    2.1433    0.0000    0.0000 O   0  0  0  0  0  0  0  0  0  0  0  0
  1  2  2  0      
  2  3  1  0      
  3  4  2  0      
  4  5  1  4      
  5  6  3  0      
  3  7  1  0      
  7  8  1  0      
  8  9  1  0      
  1  9  1  0      
  9 10  1  0      
  8 11  1  0      
  7 12  1  0      
 12 13  1  0      
 13 14  1  0      
 14 15  1  0      
 15 16  1  0      
 16 17  1  0      
 17 18  1  0      
 13 18  1  0      
 17 19  1  0      
 19 20  1  0      
 16 21  1  0      
 15 22  1  0      
 14 23  1  0      
M  END
>  <Bioactivity>
20S, 20R ginsenoside-Rh1 can inhibit the thrombin-induced conversion of fibrinogen to fibrin.

>  <CAS>
80952-71-2

>  <Col>
6

>  <Formula>
C36H62O9

>  <ID>
T3793

>  <Index>
815

>  <MOLENAME>
(20R)-Ginsenoside Rh1

>  <MolWt>
638.9

>  <Pathways>
Others

>  <Plate>
PLATE 011

>  <QR code>
1151480592

>  <Receptor>
Others

>  <Reference>
1. Yu HS,et al. [Chemical constituents from processed rhizomes of Panax notoginseng]. Zhongguo Zhong Yao Za Zhi. 2013 Nov;38(22):3910-7.

>  <Row>
B

>  <SMILES>
C1=CC(=CC#N)C(C(C1O)O)OC2C(C(C(C(O2)CO)O)O)O

>  <Target>
Others

>  <Weight>
10.1mg

$$$$
Lab-1.sdf
  ChemDraw05232018482D

 31 34  0  0  0  0  0  0  0  0999 V2000
   -1.7861    0.0000    0.0000 C   0  0  0  0  0  0  0  0  0  0  0  0
   -2.5006    0.0000    0.0000 C   0  0  0  0  0  0  0  0  0  0  0  0
   -2.5006    0.0000    0.0000 C   0  0  0  0  0  0  0  0  0  0  0  0
   -1.7861    0.0000    0.0000 C   0  0  0  0  0  0  0  0  0  0  0  0
   -1.0716    0.0000    0.0000 C   0  0  0  0  0  0  0  0  0  0  0  0
   -1.0716    0.0000    0.0000 C   0  0  0  0  0  0  0  0  0  0  0  0
   -0.3572    0.0000    0.0000 C   0  0  0  0  0  0  0  0  0  0  0  0
   -0.3572    0.0000    0.0000 C   0  0  0  0  0  0  0  0  0  0  0  0
    0.3572    0.0000    0.0000 O   0  0  0  0  0  0  0  0  0  0  0  0
    1.0717    0.0000    0.0000 C   0  0  0  0  0  0  0  0  0  0  0  0
    1.0717    0.0000    0.0000 C   0  0  0  0  0  0  0  0  0  0  0  0
    0.3572    0.0000    0.0000 C   0  0  0  0  0  0  0  0  0  0  0  0
    0.3572    0.0000    0.0000 O   0  0  0  0  0  0  0  0  0  0  0  0
    1.7861    0.0000    0.0000 C   0  0  0  0  0  0  0  0  0  0  0  0
    2.5006    0.0000    0.0000 C   0  0  0  0  0  0  0  0  0  0  0  0
    2.5006    0.0000    0.0000 C   0  0  0  0  0  0  0  0  0  0  0  0
    1.7861    0.0000    0.0000 C   0  0  0  0  0  0  0  0  0  0  0  0
    1.7861    0.0000    0.0000 C   0  0  0  0  0  0  0  0  0  0  0  0
    2.5006    0.0000    0.0000 C   0  0  0  0  0  0  0  0  0  0  0  0
    2.5006    0.0000    0.0000 C   0  0  0  0  0  0  0  0  0  0  0  0
    1.7861    0.0000    0.0000 C   0  0  0  0  0  0  0  0  0  0  0  0
    1.0717    0.0000    0.0000 C   0  0  0  0  0  0  0  0  0  0  0  0
    1.0717    0.0000    0.0000 O   0  0  0  0  0  0  0  0  0  0  0  0
    0.3572    0.0000    0.0000 C   0  0  0  0  0  0  0  0  0  0  0  0
    0.3572    0.0000    0.0000 O   0  0  0  0  0  0  0  0  0  0  0  0
    1.7861    0.0000    0.0000 O   0  0  0  0  0  0  0  0  0  0  0  0
    3.2151    0.0000    0.0000 O   0  0  0  0  0  0  0  0  0  0  0  0
    3.2151    0.0000    0.0000 O   0  0  0  0  0  0  0  0  0  0  0  0
    3.2151    0.0000    0.0000 O   0  0  0  0  0  0  0  0  0  0  0  0
   -1.7861    0.0000    0.0000 O   0  0  0  0  0  0  0  0  0  0  0  0
   -3.2151    0.0000    0.0000 O   0  0  0  0  0  0  0  0  0  0  0  0
  1  2  2  0      
  2  3  1  0      
  3  4  2  0      
  4  5  1  0      
  5  6  2  0      
  1  6  1  0      
  6  7  1  0      
  7  8  2  0      
  8  9  1  0      
  9 10  1  0      
 10 11  2  0      
 11 12  1  0      
  7 12  1  0      
 12 13  2  0      
 11 14  1  0      
 14 15  2  0      
 15 16  1  0      
 16 17  2  0      
 10 17  1  0      
 17 18  1  0      
 18 19  1  0      
 19 20  1  0      
 20 21  1  0      
 21 22  1  0      
 22 23  1  0      
 18 23  1  0      
 22 24  1  0      
 24 25  1  0      
 21 26  1  0      
 20 27  1  0      
 19 28  1  0      
 16 29  1  0      
  4 30  1  0      
  3 31  1  0      
M  END
>  <Bioactivity>
1. 3'-Hydroxypuerarin shows marked peroxynitrite. 

>  <CAS>
117060-54-5

>  <Col>
7

>  <Formula>
C21H20O10

>  <ID>
T3778

>  <Index>
816

>  <MOLENAME>
Pueraria glycoside

>  <MolWt>
432.38

>  <Pathways>
Others

>  <Plate>
PLATE 011

>  <QR code>
1151480593

>  <Receptor>
Others

>  <Reference>
1. Jin SE,et al. Anti-inflammatory and antioxidant activities of constituents isolated from Pueraria lobata roots.Arch Pharm Res. 2012 May;35(5):823-37. 

>  <Row>
B

>  <SMILES>
C1=CC(=C(C=C1C2=COC3=C(C2=O)C=CC(=C3C4C(C(C(C(O4)CO)O)O)O)O)O)O

>  <Target>
Others

>  <Weight>
10.2mg

$$$$
Lab-1.sdf
  ChemDraw05232018482D

 73 82  0  0  0  0  0  0  0  0999 V2000
    0.3594    0.0000    0.0000 C   0  0  0  0  0  0  0  0  0  0  0  0
    1.1830    0.0000    0.0000 C   0  0  0  0  0  0  0  0  0  0  0  0
    1.6357    0.0000    0.0000 C   0  0  0  0  0  0  0  0  0  0  0  0
    2.4593    0.0000    0.0000 C   0  0  0  0  0  0  0  0  0  0  0  0
    2.8303    0.0000    0.0000 C   0  0  0  0  0  0  0  0  0  0  0  0
    2.3776    0.0000    0.0000 C   0  0  0  0  0  0  0  0  0  0  0  0
    1.5540    0.0000    0.0000 O   0  0  0  0  0  0  0  0  0  0  0  0
    2.7486    0.0000    0.0000 O   0  0  0  0  0  0  0  0  0  0  0  0
    2.2959    0.0000    0.0000 C   0  0  0  0  0  0  0  0  0  0  0  0
    2.6668    0.0000    0.0000 C   0  0  0  0  0  0  0  0  0  0  0  0
    2.2141    0.0000    0.0000 C   0  0  0  0  0  0  0  0  0  0  0  0
    1.3905    0.0000    0.0000 C   0  0  0  0  0  0  0  0  0  0  0  0
    1.0195    0.0000    0.0000 O   0  0  0  0  0  0  0  0  0  0  0  0
    1.4722    0.0000    0.0000 C   0  0  0  0  0  0  0  0  0  0  0  0
    1.1013    0.0000    0.0000 O   0  0  0  0  0  0  0  0  0  0  0  0
    0.2776    0.0000    0.0000 C   0  0  0  0  0  0  0  0  0  0  0  0
   -0.0932    0.0000    0.0000 C   0  0  0  0  0  0  0  0  0  0  0  0
   -0.9169    0.0000    0.0000 C   0  0  0  0  0  0  0  0  0  0  0  0
   -1.3696    0.0000    0.0000 C   0  0  0  0  0  0  0  0  0  0  0  0
   -2.1932    0.0000    0.0000 C   0  0  0  0  0  0  0  0  0  0  0  0
   -2.5514    0.0000    0.0000 C   0  0  0  0  0  0  0  0  0  0  0  0
   -3.3704    0.0000    0.0000 C   0  0  0  0  0  0  0  0  0  0  0  0
   -3.8081    0.0000    0.0000 C   0  0  0  0  0  0  0  0  0  0  0  0
   -4.6337    0.0000    0.0000 C   0  0  0  0  0  0  0  0  0  0  0  0
   -5.2391    0.0000    0.0000 C   0  0  0  0  0  0  0  0  0  0  0  0
   -6.0435    0.0000    0.0000 C   0  0  0  0  0  0  0  0  0  0  0  0
   -6.2524    0.0000    0.0000 C   0  0  0  0  0  0  0  0  0  0  0  0
   -5.6322    0.0000    0.0000 O   0  0  0  0  0  0  0  0  0  0  0  0
   -4.7465    0.0000    0.0000 C   0  0  0  0  0  0  0  0  0  0  0  0
   -3.8396    0.0000    0.0000 C   0  0  0  0  0  0  0  0  0  0  0  0
   -3.4623    0.0000    0.0000 C   0  0  0  0  0  0  0  0  0  0  0  0
   -2.6459    0.0000    0.0000 C   0  0  0  0  0  0  0  0  0  0  0  0
   -2.2750    0.0000    0.0000 C   0  0  0  0  0  0  0  0  0  0  0  0
   -1.4513    0.0000    0.0000 C   0  0  0  0  0  0  0  0  0  0  0  0
   -0.9986    0.0000    0.0000 C   0  0  0  0  0  0  0  0  0  0  0  0
   -0.1750    0.0000    0.0000 C   0  0  0  0  0  0  0  0  0  0  0  0
   -0.1934    0.0000    0.0000 C   0  0  0  0  0  0  0  0  0  0  0  0
    0.4984    0.0000    0.0000 C   0  0  0  0  0  0  0  0  0  0  0  0
   -3.0773    0.0000    0.0000 C   0  0  0  0  0  0  0  0  0  0  0  0
   -3.8472    0.0000    0.0000 C   0  0  0  0  0  0  0  0  0  0  0  0
   -4.7261    0.0000    0.0000 O   0  0  0  0  0  0  0  0  0  0  0  0
   -7.0445    0.0000    0.0000 C   0  0  0  0  0  0  0  0  0  0  0  0
   -7.6404    0.0000    0.0000 C   0  0  0  0  0  0  0  0  0  0  0  0
   -7.4442    0.0000    0.0000 C   0  0  0  0  0  0  0  0  0  0  0  0
   -8.4324    0.0000    0.0000 C   0  0  0  0  0  0  0  0  0  0  0  0
   -5.4110    0.0000    0.0000 C   0  0  0  0  0  0  0  0  0  0  0  0
   -4.6669    0.0000    0.0000 O   0  0  0  0  0  0  0  0  0  0  0  0
   -1.7405    0.0000    0.0000 C   0  0  0  0  0  0  0  0  0  0  0  0
    2.5851    0.0000    0.0000 O   0  0  0  0  0  0  0  0  0  0  0  0
    3.4905    0.0000    0.0000 O   0  0  0  0  0  0  0  0  0  0  0  0
    3.8614    0.0000    0.0000 C   0  0  0  0  0  0  0  0  0  0  0  0
    4.6851    0.0000    0.0000 C   0  0  0  0  0  0  0  0  0  0  0  0
    5.0560    0.0000    0.0000 C   0  0  0  0  0  0  0  0  0  0  0  0
    4.6033    0.0000    0.0000 C   0  0  0  0  0  0  0  0  0  0  0  0
    3.7797    0.0000    0.0000 C   0  0  0  0  0  0  0  0  0  0  0  0
    3.4087    0.0000    0.0000 O   0  0  0  0  0  0  0  0  0  0  0  0
    3.3270    0.0000    0.0000 C   0  0  0  0  0  0  0  0  0  0  0  0
    3.6979    0.0000    0.0000 O   0  0  0  0  0  0  0  0  0  0  0  0
    4.9743    0.0000    0.0000 O   0  0  0  0  0  0  0  0  0  0  0  0
    5.8797    0.0000    0.0000 O   0  0  0  0  0  0  0  0  0  0  0  0
    5.1378    0.0000    0.0000 O   0  0  0  0  0  0  0  0  0  0  0  0
    5.9614    0.0000    0.0000 C   0  0  0  0  0  0  0  0  0  0  0  0
    6.4141    0.0000    0.0000 C   0  0  0  0  0  0  0  0  0  0  0  0
    7.2378    0.0000    0.0000 C   0  0  0  0  0  0  0  0  0  0  0  0
    7.6087    0.0000    0.0000 C   0  0  0  0  0  0  0  0  0  0  0  0
    7.1560    0.0000    0.0000 C   0  0  0  0  0  0  0  0  0  0  0  0
    6.3324    0.0000    0.0000 O   0  0  0  0  0  0  0  0  0  0  0  0
    8.4324    0.0000    0.0000 O   0  0  0  0  0  0  0  0  0  0  0  0
    7.6905    0.0000    0.0000 O   0  0  0  0  0  0  0  0  0  0  0  0
    6.0432    0.0000    0.0000 O   0  0  0  0  0  0  0  0  0  0  0  0
    3.6539    0.0000    0.0000 O   0  0  0  0  0  0  0  0  0  0  0  0
    2.9120    0.0000    0.0000 O   0  0  0  0  0  0  0  0  0  0  0  0
    1.2647    0.0000    0.0000 O   0  0  0  0  0  0  0  0  0  0  0  0
  1  2  1  0      
  2  3  1  0      
  3  4  1  0      
  4  5  1  0      
  5  6  1  0      
  6  7  1  0      
  2  7  1  0      
  6  8  1  0      
  8  9  1  0      
  9 10  1  0      
 10 11  1  0      
 11 12  1  0      
 12 13  1  0      
 13 14  1  0      
  9 14  1  0      
 14 15  1  0      
 15 16  1  0      
 16 17  1  0      
 17 18  1  0      
 18 19  1  0      
 19 20  1  0      
 20 21  1  0      
 21 22  1  0      
 22 23  1  0      
 23 24  1  0      
 24 25  1  0      
 25 26  1  0      
 26 27  1  0      
 27 28  1  0      
 28 29  1  0      
 24 29  1  0      
 29 30  1  0      
 30 31  1  0      
 23 31  1  0      
 31 32  1  0      
 20 32  1  0      
 32 33  1  0      
 33 34  1  0      
 34 35  1  0      
 19 35  1  0      
 35 36  1  0      
 16 36  1  0      
 36 37  1  0      
 36 38  1  0      
 32 39  1  0      
 31 40  1  0      
 40 41  1  0      
 29 41  1  0      
 27 42  1  0      
 42 43  2  0      
 43 44  1  0      
 43 45  1  0      
 25 46  1  0      
 25 47  1  0      
 19 48  1  0      
 11 49  1  0      
 10 50  1  0      
 50 51  1  0      
 51 52  1  0      
 52 53  1  0      
 53 54  1  0      
 54 55  1  0      
 55 56  1  0      
 51 56  1  0      
 55 57  1  0      
 57 58  1  0      
 54 59  1  0      
 53 60  1  0      
 52 61  1  0      
 61 62  1  0      
 62 63  1  0      
 63 64  1  0      
 64 65  1  0      
 65 66  1  0      
 66 67  1  0      
 62 67  1  0      
 65 68  1  0      
 64 69  1  0      
 63 70  1  0      
  5 71  1  0      
  4 72  1  0      
  3 73  1  0      
M  END
>  <Bioactivity>
Jujuboside B has potent inhibitory effects on collagen-, thrombin-, AA-, and ADP-induced aggregation, also exhibits superior protection on thromboembolic model.

>  <CAS>
55466-05-2

>  <Col>
8

>  <Formula>
C52H84O21

>  <ID>
T3781

>  <Index>
817

>  <MOLENAME>
Jujuboside B

>  <MolWt>
1045.21

>  <Pathways>
Others

>  <Plate>
PLATE 011

>  <QR code>
1151480594

>  <Receptor>
Others

>  <Reference>
1. Seo EJ,et al. Zizyphus jujuba and its active component jujuboside B inhibit platelet aggregation. Phytother Res. 2013 Jun;27(6):829-34. 

>  <Row>
B

>  <SMILES>
CC1C(C(C(C(O1)OC2C(C(COC2OC3CCC4(C5CCC6C7C(CC(OC78CC6(C5(CCC4C3(C)C)C)CO8)C=C(C)C)(C)O)C)O)OC9C(C(C(C(O9)CO)O)O)OC1C(C(C(CO1)O)O)O)O)O)O

>  <Target>
Others

>  <Weight>
10.1mg

$$$$
Lab-1.sdf
  ChemDraw05232018482D

 56 63  0  0  0  0  0  0  0  0999 V2000
   -1.7887    0.0000    0.0000 C   0  0  0  0  0  0  0  0  0  0  0  0
   -2.6009    0.0000    0.0000 C   0  0  0  0  0  0  0  0  0  0  0  0
   -3.1327    0.0000    0.0000 O   0  0  0  0  0  0  0  0  0  0  0  0
   -2.8812    0.0000    0.0000 O   0  0  0  0  0  0  0  0  0  0  0  0
   -3.6933    0.0000    0.0000 C   0  0  0  0  0  0  0  0  0  0  0  0
   -4.2251    0.0000    0.0000 C   0  0  0  0  0  0  0  0  0  0  0  0
   -5.0373    0.0000    0.0000 C   0  0  0  0  0  0  0  0  0  0  0  0
   -5.3176    0.0000    0.0000 C   0  0  0  0  0  0  0  0  0  0  0  0
   -4.7857    0.0000    0.0000 O   0  0  0  0  0  0  0  0  0  0  0  0
   -3.9736    0.0000    0.0000 C   0  0  0  0  0  0  0  0  0  0  0  0
   -3.4418    0.0000    0.0000 O   0  0  0  0  0  0  0  0  0  0  0  0
   -2.6297    0.0000    0.0000 C   0  0  0  0  0  0  0  0  0  0  0  0
   -2.3494    0.0000    0.0000 C   0  0  0  0  0  0  0  0  0  0  0  0
   -1.5372    0.0000    0.0000 C   0  0  0  0  0  0  0  0  0  0  0  0
   -1.0053    0.0000    0.0000 C   0  0  0  0  0  0  0  0  0  0  0  0
   -0.7250    0.0000    0.0000 C   0  0  0  0  0  0  0  0  0  0  0  0
   -0.1932    0.0000    0.0000 C   0  0  0  0  0  0  0  0  0  0  0  0
    0.0871    0.0000    0.0000 C   0  0  0  0  0  0  0  0  0  0  0  0
    0.8992    0.0000    0.0000 C   0  0  0  0  0  0  0  0  0  0  0  0
    1.4310    0.0000    0.0000 C   0  0  0  0  0  0  0  0  0  0  0  0
    2.2557    0.0000    0.0000 C   0  0  0  0  0  0  0  0  0  0  0  0
    2.4850    0.0000    0.0000 C   0  0  0  0  0  0  0  0  0  0  0  0
    1.8020    0.0000    0.0000 C   0  0  0  0  0  0  0  0  0  0  0  0
    1.1507    0.0000    0.0000 C   0  0  0  0  0  0  0  0  0  0  0  0
    0.3386    0.0000    0.0000 C   0  0  0  0  0  0  0  0  0  0  0  0
    0.0583    0.0000    0.0000 C   0  0  0  0  0  0  0  0  0  0  0  0
   -0.7538    0.0000    0.0000 C   0  0  0  0  0  0  0  0  0  0  0  0
   -1.2856    0.0000    0.0000 C   0  0  0  0  0  0  0  0  0  0  0  0
   -2.0978    0.0000    0.0000 C   0  0  0  0  0  0  0  0  0  0  0  0
   -1.0341    0.0000    0.0000 O   0  0  0  0  0  0  0  0  0  0  0  0
   -1.8462    0.0000    0.0000 C   0  0  0  0  0  0  0  0  0  0  0  0
   -2.1265    0.0000    0.0000 C   0  0  0  0  0  0  0  0  0  0  0  0
   -2.9388    0.0000    0.0000 C   0  0  0  0  0  0  0  0  0  0  0  0
   -3.4706    0.0000    0.0000 C   0  0  0  0  0  0  0  0  0  0  0  0
   -3.1903    0.0000    0.0000 C   0  0  0  0  0  0  0  0  0  0  0  0
   -2.3782    0.0000    0.0000 O   0  0  0  0  0  0  0  0  0  0  0  0
   -3.7221    0.0000    0.0000 C   0  0  0  0  0  0  0  0  0  0  0  0
   -4.5342    0.0000    0.0000 O   0  0  0  0  0  0  0  0  0  0  0  0
   -4.2827    0.0000    0.0000 O   0  0  0  0  0  0  0  0  0  0  0  0
   -3.2191    0.0000    0.0000 O   0  0  0  0  0  0  0  0  0  0  0  0
   -1.5947    0.0000    0.0000 O   0  0  0  0  0  0  0  0  0  0  0  0
    0.9531    0.0000    0.0000 C   0  0  0  0  0  0  0  0  0  0  0  0
    3.2609    0.0000    0.0000 O   0  0  0  0  0  0  0  0  0  0  0  0
    2.7620    0.0000    0.0000 C   0  0  0  0  0  0  0  0  0  0  0  0
    3.1219    0.0000    0.0000 C   0  0  0  0  0  0  0  0  0  0  0  0
    3.9392    0.0000    0.0000 C   0  0  0  0  0  0  0  0  0  0  0  0
    4.0844    0.0000    0.0000 C   0  0  0  0  0  0  0  0  0  0  0  0
    3.3569    0.0000    0.0000 O   0  0  0  0  0  0  0  0  0  0  0  0
    4.8267    0.0000    0.0000 C   0  0  0  0  0  0  0  0  0  0  0  0
    4.4669    0.0000    0.0000 C   0  0  0  0  0  0  0  0  0  0  0  0
    5.1866    0.0000    0.0000 C   0  0  0  0  0  0  0  0  0  0  0  0
    5.5691    0.0000    0.0000 O   0  0  0  0  0  0  0  0  0  0  0  0
    2.0612    0.0000    0.0000 C   0  0  0  0  0  0  0  0  0  0  0  0
    1.7909    0.0000    0.0000 C   0  0  0  0  0  0  0  0  0  0  0  0
   -5.5691    0.0000    0.0000 O   0  0  0  0  0  0  0  0  0  0  0  0
   -3.9448    0.0000    0.0000 O   0  0  0  0  0  0  0  0  0  0  0  0
  1  2  1  0      
  2  3  2  0      
  2  4  1  0      
  4  5  1  0      
  5  6  1  0      
  6  7  1  0      
  7  8  1  0      
  8  9  1  0      
  9 10  1  0      
  5 10  1  0      
 10 11  1  0      
 11 12  1  0      
 12 13  1  0      
 13 14  1  0      
 14 15  1  0      
 15 16  1  0      
 16 17  1  0      
 15 17  1  0      
 17 18  1  0      
 18 19  1  0      
 19 20  1  0      
 20 21  1  0      
 21 22  1  0      
 22 23  1  0      
 23 24  1  0      
 20 24  1  0      
 24 25  1  0      
 17 25  1  0      
 25 26  1  0      
 26 27  1  0      
 27 28  1  0      
 15 28  1  0      
 28 29  1  0      
 12 29  1  0      
 27 30  1  0      
 30 31  1  0      
 31 32  1  0      
 32 33  1  0      
 33 34  1  0      
 34 35  1  0      
 35 36  1  0      
 31 36  1  0      
 35 37  1  0      
 37 38  1  0      
 34 39  1  0      
 33 40  1  0      
 32 41  1  0      
 24 42  1  0      
 22 43  1  0      
 21 44  1  0      
 44 45  1  0      
 45 46  1  0      
 46 47  1  0      
 47 48  1  0      
 44 48  1  0      
 47 49  1  0      
 49 50  1  0      
 49 51  1  0      
 49 52  1  0      
 44 53  1  0      
 20 54  1  0      
  7 55  1  0      
  6 56  1  0      
M  END
>  <Bioactivity>
Astragaloside II is a potent MDR reversal agent and may be a potential adjunctive agent for hepatic cancer chemotherapy.Also, Astragaloside II induces osteogenic activities,proliferation, differentiat
ion and mineralization, through the bone morphogenetic protein-2/MAPK and Smad1/5/8 pathways.

>  <CAS>
84676-89-1

>  <Col>
9

>  <Formula>
C41H66O15

>  <ID>
T3924

>  <Index>
818

>  <MOLENAME>
Astragaloside II

>  <MolWt>
798.95

>  <Pathways>
TGF-beta/Smad inhibitor

>  <Plate>
PLATE 011

>  <QR code>
1151480595

>  <Receptor>
Smad1, Smad5, Smad8

>  <Reference>
1. Huang C, et al. Reversal of P-glycoprotein-mediated multidrug resistance of human hepatic cancer cells by Astragaloside II. J Pharm Pharmacol. 2012 Dec;64(12):1741-50.

>  <Row>
B

>  <SMILES>
CC(=O)OC1C(C(COC1OC2CCC34CC35CCC6(C(C(CC6(C5CC(C4C2)OC7C(C(C(C(O7)CO)O)O)O)C)O)C8(CCC(O8)C(C)(C)O)C)C)O)O

>  <Target>
TGF-beta/Smad inhibitor

>  <Weight>
10.4mg

$$$$
Lab-1.sdf
  ChemDraw05232018482D

 76 84  0  0  0  0  0  0  0  0999 V2000
    5.3625    0.0000    0.0000 C   0  0  0  0  0  0  0  0  0  0  0  0
    4.9500    0.0000    0.0000 C   0  0  0  0  0  0  0  0  0  0  0  0
    5.3625    0.0000    0.0000 C   0  0  0  0  0  0  0  0  0  0  0  0
    4.9500    0.0000    0.0000 C   0  0  0  0  0  0  0  0  0  0  0  0
    4.1250    0.0000    0.0000 C   0  0  0  0  0  0  0  0  0  0  0  0
    3.7125    0.0000    0.0000 C   0  0  0  0  0  0  0  0  0  0  0  0
    4.1250    0.0000    0.0000 O   0  0  0  0  0  0  0  0  0  0  0  0
    2.8875    0.0000    0.0000 O   0  0  0  0  0  0  0  0  0  0  0  0
    2.4750    0.0000    0.0000 C   0  0  0  0  0  0  0  0  0  0  0  0
    2.8875    0.0000    0.0000 C   0  0  0  0  0  0  0  0  0  0  0  0
    2.4750    0.0000    0.0000 C   0  0  0  0  0  0  0  0  0  0  0  0
    1.6500    0.0000    0.0000 C   0  0  0  0  0  0  0  0  0  0  0  0
    1.2375    0.0000    0.0000 O   0  0  0  0  0  0  0  0  0  0  0  0
    1.6500    0.0000    0.0000 C   0  0  0  0  0  0  0  0  0  0  0  0
    1.2375    0.0000    0.0000 O   0  0  0  0  0  0  0  0  0  0  0  0
    0.4125    0.0000    0.0000 C   0  0  0  0  0  0  0  0  0  0  0  0
   -0.0000    0.0000    0.0000 O   0  0  0  0  0  0  0  0  0  0  0  0
   -0.0000    0.0000    0.0000 C   0  0  0  0  0  0  0  0  0  0  0  0
    0.8250    0.0000    0.0000 C   0  0  0  0  0  0  0  0  0  0  0  0
    1.2375    0.0000    0.0000 C   0  0  0  0  0  0  0  0  0  0  0  0
    0.8250    0.0000    0.0000 C   0  0  0  0  0  0  0  0  0  0  0  0
   -0.0000    0.0000    0.0000 C   0  0  0  0  0  0  0  0  0  0  0  0
   -0.4125    0.0000    0.0000 C   0  0  0  0  0  0  0  0  0  0  0  0
   -1.2375    0.0000    0.0000 C   0  0  0  0  0  0  0  0  0  0  0  0
   -1.6500    0.0000    0.0000 C   0  0  0  0  0  0  0  0  0  0  0  0
   -2.4750    0.0000    0.0000 C   0  0  0  0  0  0  0  0  0  0  0  0
   -2.8875    0.0000    0.0000 C   0  0  0  0  0  0  0  0  0  0  0  0
   -2.4750    0.0000    0.0000 C   0  0  0  0  0  0  0  0  0  0  0  0
   -1.6500    0.0000    0.0000 C   0  0  0  0  0  0  0  0  0  0  0  0
   -1.2375    0.0000    0.0000 C   0  0  0  0  0  0  0  0  0  0  0  0
   -0.4125    0.0000    0.0000 C   0  0  0  0  0  0  0  0  0  0  0  0
   -2.0625    0.0000    0.0000 C   0  0  0  0  0  0  0  0  0  0  0  0
   -2.8875    0.0000    0.0000 C   0  0  0  0  0  0  0  0  0  0  0  0
   -3.7125    0.0000    0.0000 C   0  0  0  0  0  0  0  0  0  0  0  0
   -4.1250    0.0000    0.0000 C   0  0  0  0  0  0  0  0  0  0  0  0
   -3.7125    0.0000    0.0000 C   0  0  0  0  0  0  0  0  0  0  0  0
   -4.1250    0.0000    0.0000 C   0  0  0  0  0  0  0  0  0  0  0  0
   -4.9500    0.0000    0.0000 C   0  0  0  0  0  0  0  0  0  0  0  0
   -5.3625    0.0000    0.0000 C   0  0  0  0  0  0  0  0  0  0  0  0
   -4.9500    0.0000    0.0000 C   0  0  0  0  0  0  0  0  0  0  0  0
   -5.6497    0.0000    0.0000 C   0  0  0  0  0  0  0  0  0  0  0  0
   -4.9788    0.0000    0.0000 C   0  0  0  0  0  0  0  0  0  0  0  0
   -5.7073    0.0000    0.0000 O   0  0  0  0  0  0  0  0  0  0  0  0
   -6.1875    0.0000    0.0000 O   0  0  0  0  0  0  0  0  0  0  0  0
   -6.6000    0.0000    0.0000 C   0  0  0  0  0  0  0  0  0  0  0  0
   -7.4250    0.0000    0.0000 C   0  0  0  0  0  0  0  0  0  0  0  0
   -7.8375    0.0000    0.0000 C   0  0  0  0  0  0  0  0  0  0  0  0
   -7.4250    0.0000    0.0000 C   0  0  0  0  0  0  0  0  0  0  0  0
   -6.6000    0.0000    0.0000 C   0  0  0  0  0  0  0  0  0  0  0  0
   -6.1875    0.0000    0.0000 O   0  0  0  0  0  0  0  0  0  0  0  0
   -6.1875    0.0000    0.0000 C   0  0  0  0  0  0  0  0  0  0  0  0
   -6.6000    0.0000    0.0000 O   0  0  0  0  0  0  0  0  0  0  0  0
   -7.8375    0.0000    0.0000 O   0  0  0  0  0  0  0  0  0  0  0  0
   -8.6625    0.0000    0.0000 O   0  0  0  0  0  0  0  0  0  0  0  0
   -7.8375    0.0000    0.0000 O   0  0  0  0  0  0  0  0  0  0  0  0
   -5.3625    0.0000    0.0000 O   0  0  0  0  0  0  0  0  0  0  0  0
   -3.3000    0.0000    0.0000 C   0  0  0  0  0  0  0  0  0  0  0  0
   -2.5613    0.0000    0.0000 C   0  0  0  0  0  0  0  0  0  0  0  0
    1.5246    0.0000    0.0000 C   0  0  0  0  0  0  0  0  0  0  0  0
    0.8538    0.0000    0.0000 C   0  0  0  0  0  0  0  0  0  0  0  0
    1.2375    0.0000    0.0000 C   0  0  0  0  0  0  0  0  0  0  0  0
    0.4125    0.0000    0.0000 O   0  0  0  0  0  0  0  0  0  0  0  0
    2.8875    0.0000    0.0000 O   0  0  0  0  0  0  0  0  0  0  0  0
    3.7125    0.0000    0.0000 O   0  0  0  0  0  0  0  0  0  0  0  0
    3.7125    0.0000    0.0000 O   0  0  0  0  0  0  0  0  0  0  0  0
    5.3625    0.0000    0.0000 O   0  0  0  0  0  0  0  0  0  0  0  0
    6.1875    0.0000    0.0000 O   0  0  0  0  0  0  0  0  0  0  0  0
    6.6000    0.0000    0.0000 C   0  0  0  0  0  0  0  0  0  0  0  0
    7.4250    0.0000    0.0000 C   0  0  0  0  0  0  0  0  0  0  0  0
    7.8375    0.0000    0.0000 C   0  0  0  0  0  0  0  0  0  0  0  0
    7.4250    0.0000    0.0000 C   0  0  0  0  0  0  0  0  0  0  0  0
    6.6000    0.0000    0.0000 C   0  0  0  0  0  0  0  0  0  0  0  0
    6.1875    0.0000    0.0000 O   0  0  0  0  0  0  0  0  0  0  0  0
    7.8375    0.0000    0.0000 O   0  0  0  0  0  0  0  0  0  0  0  0
    8.6625    0.0000    0.0000 O   0  0  0  0  0  0  0  0  0  0  0  0
    7.8375    0.0000    0.0000 O   0  0  0  0  0  0  0  0  0  0  0  0
  1  2  1  0      
  2  3  1  0      
  3  4  1  0      
  4  5  1  0      
  5  6  1  0      
  6  7  1  0      
  2  7  1  0      
  6  8  1  0      
  8  9  1  0      
  9 10  1  0      
 10 11  1  0      
 11 12  1  0      
 12 13  1  0      
 13 14  1  0      
  9 14  1  0      
 14 15  1  0      
 15 16  1  0      
 16 17  2  0      
 16 18  1  0      
 18 19  1  0      
 19 20  1  0      
 20 21  1  0      
 21 22  1  0      
 22 23  1  0      
 18 23  1  0      
 23 24  1  0      
 24 25  2  0      
 25 26  1  0      
 26 27  1  0      
 27 28  1  0      
 28 29  1  0      
 24 29  1  0      
 29 30  1  0      
 30 31  1  0      
 18 31  1  0      
 29 32  1  0      
 28 33  1  0      
 33 34  1  0      
 34 35  1  0      
 35 36  1  0      
 27 36  1  0      
 36 37  1  0      
 37 38  1  0      
 38 39  1  0      
 39 40  1  0      
 35 40  1  0      
 40 41  1  0      
 40 42  1  0      
 42 43  1  0      
 39 44  1  0      
 44 45  1  0      
 45 46  1  0      
 46 47  1  0      
 47 48  1  0      
 48 49  1  0      
 49 50  1  0      
 45 50  1  0      
 49 51  1  0      
 51 52  1  0      
 48 53  1  0      
 47 54  1  0      
 46 55  1  0      
 38 56  1  0      
 36 57  1  0      
 28 58  1  0      
 21 59  1  0      
 21 60  1  0      
 12 61  1  0      
 61 62  1  0      
 11 63  1  0      
 10 64  1  0      
  5 65  1  0      
  4 66  1  0      
  3 67  1  0      
 67 68  1  0      
 68 69  1  0      
 69 70  1  0      
 70 71  1  0      
 71 72  1  0      
 72 73  1  0      
 68 73  1  0      
 71 74  1  0      
 70 75  1  0      
 69 76  1  0      
M  END
>  <Bioactivity>
Polygalasaponin F protects PC12 cells against rotenone-induced apoptosis via ameliorating the mitochondrial dysfunction.Polygalasaponin F has anti-neuroinflammatory activity, can inhibit the release 
of inflammatory cytokines TNF-¦Á and NO induced by lipopolysaccharides (LPS) and reduce the expression of inducible nitric oxide synthases.Polygalasaponin F can significantly inhibit the cytotoxicity 
of conditioned medium prepared by LPS-stimulated BV-2 microglia (LPS conditioned media) to neuronal PC12 cells and improve cell viability.Polygalasaponin F can induce long-term potentiation in hippoc
ampal dentate gyrus in anesthetized rats via NMDAR activation mediated by Ca(2+)/calmodulin-dependent kinase II, extracellular signal-regulated kinase and cAMP response element-binding protein signali
ng pathway. PS-F inhibits the secretions of neuroinflammatory cytokines by the regulation of NF-kB-signaling pathway

>  <CAS>
882664-74-6

>  <Col>
10

>  <Formula>
C53H86O23

>  <ID>
T3826

>  <Index>
819

>  <MOLENAME>
Polygalasaponin F

>  <MolWt>
1091.3

>  <Pathways>
Immunology/ Inflammation; Jak/STAT

>  <Plate>
PLATE 011

>  <QR code>
1151480596

>  <Receptor>
NF-¦ÊB

>  <Reference>
1. Zhou W,et al. Quantification of polygalasaponin F in rat plasma using liquid chromatography-tandem mass spectrometry and its pharmacokinetics application. Biomed Chromatogr. 2015 Sep;29(9):1388-92.
 

>  <Row>
B

>  <SMILES>
CC1C(C(C(C(O1)OC2C(C(C(OC2OC(=O)C34CCC(CC3C5=CCC6C(C5(CC4)C)(CCC7C6(CC(C(C7(C)CO)OC8C(C(C(C(O8)CO)O)O)O)O)C)C)(C)C)CO)O)O)O)O)OC9C(C(C(CO9)O)O)O

>  <Target>
NF-¦ÊB

>  <Weight>
10.3mg

$$$$
Lab-1.sdf
  ChemDraw05232018482D

 42 46  0  0  0  0  0  0  0  0999 V2000
   -4.2868    0.0000    0.0000 C   0  0  0  0  0  0  0  0  0  0  0  0
   -4.2868    0.0000    0.0000 C   0  0  0  0  0  0  0  0  0  0  0  0
   -3.5724    0.0000    0.0000 C   0  0  0  0  0  0  0  0  0  0  0  0
   -2.8579    0.0000    0.0000 C   0  0  0  0  0  0  0  0  0  0  0  0
   -2.8579    0.0000    0.0000 C   0  0  0  0  0  0  0  0  0  0  0  0
   -3.5724    0.0000    0.0000 C   0  0  0  0  0  0  0  0  0  0  0  0
   -2.1434    0.0000    0.0000 C   0  0  0  0  0  0  0  0  0  0  0  0
   -2.1434    0.0000    0.0000 C   0  0  0  0  0  0  0  0  0  0  0  0
   -1.4290    0.0000    0.0000 C   0  0  0  0  0  0  0  0  0  0  0  0
   -1.4290    0.0000    0.0000 O   0  0  0  0  0  0  0  0  0  0  0  0
   -0.7145    0.0000    0.0000 C   0  0  0  0  0  0  0  0  0  0  0  0
   -0.0000    0.0000    0.0000 C   0  0  0  0  0  0  0  0  0  0  0  0
    0.7145    0.0000    0.0000 C   0  0  0  0  0  0  0  0  0  0  0  0
    0.7145    0.0000    0.0000 C   0  0  0  0  0  0  0  0  0  0  0  0
   -0.0000    0.0000    0.0000 C   0  0  0  0  0  0  0  0  0  0  0  0
   -0.7145    0.0000    0.0000 C   0  0  0  0  0  0  0  0  0  0  0  0
   -1.4290    0.0000    0.0000 O   0  0  0  0  0  0  0  0  0  0  0  0
    1.4289    0.0000    0.0000 O   0  0  0  0  0  0  0  0  0  0  0  0
    2.1434    0.0000    0.0000 C   0  0  0  0  0  0  0  0  0  0  0  0
    2.8579    0.0000    0.0000 C   0  0  0  0  0  0  0  0  0  0  0  0
    3.5723    0.0000    0.0000 C   0  0  0  0  0  0  0  0  0  0  0  0
    3.5723    0.0000    0.0000 C   0  0  0  0  0  0  0  0  0  0  0  0
    2.8579    0.0000    0.0000 C   0  0  0  0  0  0  0  0  0  0  0  0
    2.1434    0.0000    0.0000 O   0  0  0  0  0  0  0  0  0  0  0  0
    2.8579    0.0000    0.0000 C   0  0  0  0  0  0  0  0  0  0  0  0
    2.1434    0.0000    0.0000 O   0  0  0  0  0  0  0  0  0  0  0  0
    2.1434    0.0000    0.0000 C   0  0  0  0  0  0  0  0  0  0  0  0
    1.4289    0.0000    0.0000 C   0  0  0  0  0  0  0  0  0  0  0  0
    1.4289    0.0000    0.0000 C   0  0  0  0  0  0  0  0  0  0  0  0
    2.1434    0.0000    0.0000 C   0  0  0  0  0  0  0  0  0  0  0  0
    2.8579    0.0000    0.0000 C   0  0  0  0  0  0  0  0  0  0  0  0
    2.8579    0.0000    0.0000 O   0  0  0  0  0  0  0  0  0  0  0  0
    3.5723    0.0000    0.0000 C   0  0  0  0  0  0  0  0  0  0  0  0
    3.5723    0.0000    0.0000 O   0  0  0  0  0  0  0  0  0  0  0  0
    2.1434    0.0000    0.0000 O   0  0  0  0  0  0  0  0  0  0  0  0
    0.7145    0.0000    0.0000 O   0  0  0  0  0  0  0  0  0  0  0  0
    0.7145    0.0000    0.0000 O   0  0  0  0  0  0  0  0  0  0  0  0
    4.2868    0.0000    0.0000 O   0  0  0  0  0  0  0  0  0  0  0  0
    4.2868    0.0000    0.0000 O   0  0  0  0  0  0  0  0  0  0  0  0
    2.8579    0.0000    0.0000 O   0  0  0  0  0  0  0  0  0  0  0  0
    1.4289    0.0000    0.0000 O   0  0  0  0  0  0  0  0  0  0  0  0
   -0.0000    0.0000    0.0000 O   0  0  0  0  0  0  0  0  0  0  0  0
  1  2  2  0      
  2  3  1  0      
  3  4  2  0      
  4  5  1  0      
  5  6  2  0      
  1  6  1  0      
  4  7  1  0      
  7  8  2  0      
  8  9  1  0      
  9 10  2  0      
  9 11  1  0      
 11 12  2  0      
 12 13  1  0      
 13 14  2  0      
 14 15  1  0      
 15 16  2  0      
 11 16  1  0      
 16 17  1  0      
  7 17  1  0      
 14 18  1  0      
 18 19  1  0      
 19 20  1  0      
 20 21  1  0      
 21 22  1  0      
 22 23  1  0      
 23 24  1  0      
 19 24  1  0      
 23 25  1  0      
 25 26  1  0      
 26 27  1  0      
 27 28  1  0      
 28 29  1  0      
 29 30  1  0      
 30 31  1  0      
 31 32  1  0      
 27 32  1  0      
 31 33  1  0      
 33 34  1  0      
 30 35  1  0      
 29 36  1  0      
 28 37  1  0      
 22 38  1  0      
 21 39  1  0      
 20 40  1  0      
 13 41  1  0      
 12 42  1  0      
M  END
>  <Bioactivity>
Oroxin B has antioxidant activity.

>  <CAS>
114482-86-9

>  <Col>
11

>  <Formula>
C27H30O15

>  <ID>
T3780

>  <Index>
820

>  <MOLENAME>
Oroxin B

>  <MolWt>
594.52

>  <Pathways>
Others

>  <Plate>
PLATE 011

>  <QR code>
1151480597

>  <Receptor>
Others

>  <Reference>
1. Li DQ,et al. Discovery of xanthine oxidase inhibitors from a complex mixture using an online, restricted-access material coupled with column-switching liquid chromatography with a diode-array detec
tion system. Anal Bioanal Chem. 2014 Mar;406(7):1975-84.

>  <Row>
B

>  <SMILES>
C1=CC=C(C=C1)C2=CC(=O)C3=C(C(=C(C=C3O2)OC4C(C(C(C(O4)COC5C(C(C(C(O5)CO)O)O)O)O)O)O)O)O

>  <Target>
Others

>  <Weight>
10.2mg

$$$$
Lab-1.sdf
  ChemDraw05232018482D

 18 20  0  0  0  0  0  0  0  0999 V2000
   -1.4212    0.0000    0.0000 C   0  0  0  0  0  0  0  0  0  0  0  0
   -1.1663    0.0000    0.0000 C   0  0  0  0  0  0  0  0  0  0  0  0
   -0.3817    0.0000    0.0000 C   0  0  0  0  0  0  0  0  0  0  0  0
    0.3328    0.0000    0.0000 C   0  0  0  0  0  0  0  0  0  0  0  0
    1.0473    0.0000    0.0000 C   0  0  0  0  0  0  0  0  0  0  0  0
    1.7617    0.0000    0.0000 C   0  0  0  0  0  0  0  0  0  0  0  0
    1.7617    0.0000    0.0000 C   0  0  0  0  0  0  0  0  0  0  0  0
    2.4762    0.0000    0.0000 C   0  0  0  0  0  0  0  0  0  0  0  0
    2.4762    0.0000    0.0000 C   0  0  0  0  0  0  0  0  0  0  0  0
    1.7617    0.0000    0.0000 C   0  0  0  0  0  0  0  0  0  0  0  0
    1.0473    0.0000    0.0000 C   0  0  0  0  0  0  0  0  0  0  0  0
    0.3328    0.0000    0.0000 C   0  0  0  0  0  0  0  0  0  0  0  0
   -0.3817    0.0000    0.0000 C   0  0  0  0  0  0  0  0  0  0  0  0
   -1.1663    0.0000    0.0000 O   0  0  0  0  0  0  0  0  0  0  0  0
   -1.6512    0.0000    0.0000 C   0  0  0  0  0  0  0  0  0  0  0  0
   -2.4762    0.0000    0.0000 O   0  0  0  0  0  0  0  0  0  0  0  0
   -0.4679    0.0000    0.0000 O   0  0  0  0  0  0  0  0  0  0  0  0
    1.0473    0.0000    0.0000 C   0  0  0  0  0  0  0  0  0  0  0  0
  1  2  1  0      
  2  3  2  0      
  3  4  1  0      
  4  5  1  0      
  5  6  1  0      
  6  7  2  0      
  6  8  1  0      
  8  9  1  0      
  9 10  1  0      
 10 11  1  0      
  5 11  1  0      
 11 12  1  0      
 12 13  1  0      
  3 13  1  0      
 13 14  1  0      
 14 15  1  0      
  2 15  1  0      
 15 16  2  0      
 13 17  1  0      
 11 18  1  0      
M  END
>  <Bioactivity>
Atractylenolide III may have therapeutic potential in treating homocysteine-mediated cognitive impairment and neuronal injury.Atractylenolide III is a potential candidate for treatment of human lung 
carcinoma by inducing the release of cytochrome c, upregulating the expression of bax and translocating apoptosis-inducing factor.

>  <CAS>
73030-71-4

>  <Col>
2

>  <Formula>
C15H20O3

>  <ID>
T3902

>  <Index>
821

>  <MOLENAME>
Atractylenolide III

>  <MolWt>
248.322

>  <Pathways>
Apoptosis

>  <Plate>
PLATE 011

>  <QR code>
1151480585

>  <Receptor>
Apoptosis inducer

>  <Reference>
1. Zhao H,et al. Neuroprotection and mechanisms of atractylenolide III in preventing learning and memory impairment induced by chronic high-dose homocysteine administration in rats. Neuroscience. 2015
 Apr 2;290:485-91. 

>  <Row>
C

>  <SMILES>
CC1=C2CC3C(=C)CCCC3(CC2(OC1=O)O)C

>  <Target>
Apoptosis inducer

>  <Weight>
10.2mg

$$$$
Lab-1.sdf
  ChemDraw05232018482D

 54 60  0  0  0  0  0  0  0  0999 V2000
   -3.0937    0.0000    0.0000 C   0  0  0  0  0  0  0  0  0  0  0  0
   -2.6812    0.0000    0.0000 C   0  0  0  0  0  0  0  0  0  0  0  0
   -3.0937    0.0000    0.0000 C   0  0  0  0  0  0  0  0  0  0  0  0
   -2.6812    0.0000    0.0000 C   0  0  0  0  0  0  0  0  0  0  0  0
   -1.8562    0.0000    0.0000 C   0  0  0  0  0  0  0  0  0  0  0  0
   -1.4437    0.0000    0.0000 C   0  0  0  0  0  0  0  0  0  0  0  0
   -0.6187    0.0000    0.0000 C   0  0  0  0  0  0  0  0  0  0  0  0
   -0.2062    0.0000    0.0000 C   0  0  0  0  0  0  0  0  0  0  0  0
   -0.6187    0.0000    0.0000 C   0  0  0  0  0  0  0  0  0  0  0  0
   -0.2062    0.0000    0.0000 C   0  0  0  0  0  0  0  0  0  0  0  0
    0.6187    0.0000    0.0000 C   0  0  0  0  0  0  0  0  0  0  0  0
    1.0312    0.0000    0.0000 C   0  0  0  0  0  0  0  0  0  0  0  0
    0.6187    0.0000    0.0000 C   0  0  0  0  0  0  0  0  0  0  0  0
    1.0312    0.0000    0.0000 C   0  0  0  0  0  0  0  0  0  0  0  0
    1.8562    0.0000    0.0000 C   0  0  0  0  0  0  0  0  0  0  0  0
    2.2687    0.0000    0.0000 C   0  0  0  0  0  0  0  0  0  0  0  0
    1.8562    0.0000    0.0000 C   0  0  0  0  0  0  0  0  0  0  0  0
    2.2687    0.0000    0.0000 C   0  0  0  0  0  0  0  0  0  0  0  0
    3.0937    0.0000    0.0000 C   0  0  0  0  0  0  0  0  0  0  0  0
    3.5062    0.0000    0.0000 C   0  0  0  0  0  0  0  0  0  0  0  0
    3.0937    0.0000    0.0000 C   0  0  0  0  0  0  0  0  0  0  0  0
    3.7934    0.0000    0.0000 C   0  0  0  0  0  0  0  0  0  0  0  0
    3.1225    0.0000    0.0000 C   0  0  0  0  0  0  0  0  0  0  0  0
    4.3312    0.0000    0.0000 O   0  0  0  0  0  0  0  0  0  0  0  0
    4.7437    0.0000    0.0000 C   0  0  0  0  0  0  0  0  0  0  0  0
    4.3312    0.0000    0.0000 C   0  0  0  0  0  0  0  0  0  0  0  0
    4.7437    0.0000    0.0000 C   0  0  0  0  0  0  0  0  0  0  0  0
    5.5687    0.0000    0.0000 C   0  0  0  0  0  0  0  0  0  0  0  0
    5.9812    0.0000    0.0000 C   0  0  0  0  0  0  0  0  0  0  0  0
    5.5687    0.0000    0.0000 O   0  0  0  0  0  0  0  0  0  0  0  0
    5.9812    0.0000    0.0000 O   0  0  0  0  0  0  0  0  0  0  0  0
    4.3312    0.0000    0.0000 O   0  0  0  0  0  0  0  0  0  0  0  0
    3.5062    0.0000    0.0000 O   0  0  0  0  0  0  0  0  0  0  0  0
    1.4437    0.0000    0.0000 C   0  0  0  0  0  0  0  0  0  0  0  0
    0.2062    0.0000    0.0000 C   0  0  0  0  0  0  0  0  0  0  0  0
   -1.4437    0.0000    0.0000 C   0  0  0  0  0  0  0  0  0  0  0  0
   -1.8562    0.0000    0.0000 C   0  0  0  0  0  0  0  0  0  0  0  0
   -1.1565    0.0000    0.0000 C   0  0  0  0  0  0  0  0  0  0  0  0
   -1.8274    0.0000    0.0000 O   0  0  0  0  0  0  0  0  0  0  0  0
   -0.2924    0.0000    0.0000 C   0  0  0  0  0  0  0  0  0  0  0  0
   -2.2687    0.0000    0.0000 C   0  0  0  0  0  0  0  0  0  0  0  0
   -1.8562    0.0000    0.0000 O   0  0  0  0  0  0  0  0  0  0  0  0
   -3.0937    0.0000    0.0000 O   0  0  0  0  0  0  0  0  0  0  0  0
   -3.5062    0.0000    0.0000 C   0  0  0  0  0  0  0  0  0  0  0  0
   -3.0937    0.0000    0.0000 C   0  0  0  0  0  0  0  0  0  0  0  0
   -3.5062    0.0000    0.0000 C   0  0  0  0  0  0  0  0  0  0  0  0
   -4.3312    0.0000    0.0000 C   0  0  0  0  0  0  0  0  0  0  0  0
   -4.7437    0.0000    0.0000 C   0  0  0  0  0  0  0  0  0  0  0  0
   -4.3312    0.0000    0.0000 O   0  0  0  0  0  0  0  0  0  0  0  0
   -5.5687    0.0000    0.0000 C   0  0  0  0  0  0  0  0  0  0  0  0
   -5.9812    0.0000    0.0000 O   0  0  0  0  0  0  0  0  0  0  0  0
   -4.7437    0.0000    0.0000 O   0  0  0  0  0  0  0  0  0  0  0  0
   -3.0937    0.0000    0.0000 O   0  0  0  0  0  0  0  0  0  0  0  0
   -2.2687    0.0000    0.0000 O   0  0  0  0  0  0  0  0  0  0  0  0
  1  2  1  0      
  2  3  1  0      
  3  4  1  0      
  4  5  1  0      
  5  6  1  0      
  6  7  1  0      
  7  8  1  0      
  8  9  1  0      
  9 10  2  0      
 10 11  1  0      
 11 12  1  0      
 12 13  1  0      
  8 13  1  0      
 13 14  1  0      
 14 15  1  0      
 15 16  1  0      
 16 17  1  0      
 12 17  1  0      
 17 18  1  0      
 18 19  1  0      
 19 20  1  0      
 20 21  1  0      
 16 21  1  0      
 21 22  1  0      
 21 23  1  0      
 20 24  1  0      
 24 25  1  0      
 25 26  1  0      
 26 27  1  0      
 27 28  1  0      
 28 29  1  0      
 29 30  1  0      
 25 30  1  0      
 28 31  1  0      
 27 32  1  0      
 26 33  1  0      
 17 34  1  0      
 13 35  1  0      
  9 36  1  0      
  5 36  1  0      
 36 37  1  0      
  2 37  1  0      
 37 38  1  0      
 37 39  1  0      
  8 40  1  0      
  5 41  1  0      
 41 42  2  0      
 41 43  1  0      
 43 44  1  0      
 44 45  1  0      
 45 46  1  0      
 46 47  1  0      
 47 48  1  0      
 48 49  1  0      
 44 49  1  0      
 48 50  1  0      
 50 51  1  0      
 47 52  1  0      
 46 53  1  0      
 45 54  1  0      
M  END
>  <Bioactivity>
Ziyuglycoside I has anti-inflammatory activity, could be used as an active ingredient for cosmetics.

>  <CAS>
35286-58-9

>  <Col>
3

>  <Formula>
C41H66O13

>  <ID>
T3798

>  <Index>
822

>  <MOLENAME>
3-O-alpha-L-Arabinopyranosylpomolic acid beta-D-glucopyranosyl ester

>  <MolWt>
766.966

>  <Pathways>
Immunology/ Inflammation

>  <Plate>
PLATE 011

>  <QR code>
1151480584

>  <Receptor>
Others

>  <Reference>
1. Ye W,et al. Development and validation of a quantification method for ziyuglycoside I and II in rat plasma: Application to their pharmacokinetic studies. J Sep Sci. 2015 Jul;38(13):2340-7. 

>  <Row>
C

>  <SMILES>
CC1CCC2(CCC3(C(=CCC4C3(CCC5C4(CCC(C5(C)C)OC6C(C(C(CO6)O)O)O)C)C)C2C1(C)O)C)C(=O)OC7C(C(C(C(O7)CO)O)O)O

>  <Target>
Others

>  <Weight>
10.3mg

$$$$
Lab-1.sdf
  ChemDraw05232018482D

 38 41  0  0  0  0  0  0  0  0999 V2000
    1.0716    0.0000    0.0000 C   0  0  0  0  0  0  0  0  0  0  0  0
    0.3572    0.0000    0.0000 C   0  0  0  0  0  0  0  0  0  0  0  0
    0.3572    0.0000    0.0000 C   0  0  0  0  0  0  0  0  0  0  0  0
   -0.3572    0.0000    0.0000 C   0  0  0  0  0  0  0  0  0  0  0  0
   -0.3572    0.0000    0.0000 C   0  0  0  0  0  0  0  0  0  0  0  0
   -1.0717    0.0000    0.0000 C   0  0  0  0  0  0  0  0  0  0  0  0
   -1.0717    0.0000    0.0000 C   0  0  0  0  0  0  0  0  0  0  0  0
   -0.3572    0.0000    0.0000 C   0  0  0  0  0  0  0  0  0  0  0  0
    0.3572    0.0000    0.0000 C   0  0  0  0  0  0  0  0  0  0  0  0
    0.3572    0.0000    0.0000 C   0  0  0  0  0  0  0  0  0  0  0  0
    1.0716    0.0000    0.0000 O   0  0  0  0  0  0  0  0  0  0  0  0
    1.7861    0.0000    0.0000 C   0  0  0  0  0  0  0  0  0  0  0  0
    1.7861    0.0000    0.0000 C   0  0  0  0  0  0  0  0  0  0  0  0
    1.0716    0.0000    0.0000 C   0  0  0  0  0  0  0  0  0  0  0  0
    1.0716    0.0000    0.0000 O   0  0  0  0  0  0  0  0  0  0  0  0
    2.5006    0.0000    0.0000 O   0  0  0  0  0  0  0  0  0  0  0  0
    2.5006    0.0000    0.0000 C   0  0  0  0  0  0  0  0  0  0  0  0
    2.5006    0.0000    0.0000 C   0  0  0  0  0  0  0  0  0  0  0  0
    3.2151    0.0000    0.0000 C   0  0  0  0  0  0  0  0  0  0  0  0
    3.9294    0.0000    0.0000 C   0  0  0  0  0  0  0  0  0  0  0  0
    3.9294    0.0000    0.0000 C   0  0  0  0  0  0  0  0  0  0  0  0
    3.2151    0.0000    0.0000 C   0  0  0  0  0  0  0  0  0  0  0  0
    4.6439    0.0000    0.0000 O   0  0  0  0  0  0  0  0  0  0  0  0
    5.3584    0.0000    0.0000 C   0  0  0  0  0  0  0  0  0  0  0  0
   -0.3572    0.0000    0.0000 O   0  0  0  0  0  0  0  0  0  0  0  0
   -1.7861    0.0000    0.0000 O   0  0  0  0  0  0  0  0  0  0  0  0
   -2.5006    0.0000    0.0000 C   0  0  0  0  0  0  0  0  0  0  0  0
   -2.5006    0.0000    0.0000 C   0  0  0  0  0  0  0  0  0  0  0  0
   -3.2151    0.0000    0.0000 C   0  0  0  0  0  0  0  0  0  0  0  0
   -3.9295    0.0000    0.0000 C   0  0  0  0  0  0  0  0  0  0  0  0
   -3.9295    0.0000    0.0000 C   0  0  0  0  0  0  0  0  0  0  0  0
   -3.2151    0.0000    0.0000 O   0  0  0  0  0  0  0  0  0  0  0  0
   -4.6439    0.0000    0.0000 C   0  0  0  0  0  0  0  0  0  0  0  0
   -5.3584    0.0000    0.0000 O   0  0  0  0  0  0  0  0  0  0  0  0
   -4.6439    0.0000    0.0000 O   0  0  0  0  0  0  0  0  0  0  0  0
   -3.2151    0.0000    0.0000 O   0  0  0  0  0  0  0  0  0  0  0  0
   -1.7861    0.0000    0.0000 O   0  0  0  0  0  0  0  0  0  0  0  0
   -0.3572    0.0000    0.0000 C   0  0  0  0  0  0  0  0  0  0  0  0
  1  2  1  0      
  2  3  2  0      
  3  4  1  0      
  4  5  1  0      
  5  6  2  0      
  6  7  1  0      
  7  8  2  0      
  8  9  1  0      
  9 10  2  0      
  5 10  1  0      
 10 11  1  0      
 11 12  1  0      
 12 13  2  0      
 13 14  1  0      
  9 14  1  0      
 14 15  2  0      
 13 16  1  0      
 12 17  1  0      
 17 18  2  0      
 18 19  1  0      
 19 20  2  0      
 20 21  1  0      
 21 22  2  0      
 17 22  1  0      
 20 23  1  0      
 23 24  1  0      
  8 25  1  0      
  6 26  1  0      
 26 27  1  0      
 27 28  1  0      
 28 29  1  0      
 29 30  1  0      
 30 31  1  0      
 31 32  1  0      
 27 32  1  0      
 31 33  1  0      
 33 34  1  0      
 30 35  1  0      
 29 36  1  0      
 28 37  1  0      
  2 38  1  0      
M  END
>  <Bioactivity>
Icariin, a prenylated flavonol glycoside isolated from Epimedium herb, stimulates osteogenic differentiation of BMSCs and inhibits bone resorption activity of osteoclasts.

>  <CAS>
56725-99-6

>  <Col>
4

>  <Formula>
C27H30O11

>  <ID>
T3808

>  <Index>
823

>  <MOLENAME>
 Icariside I

>  <MolWt>
530.526

>  <Pathways>
Others

>  <Plate>
PLATE 011

>  <QR code>
1151480583

>  <Receptor>
Others

>  <Reference>
1. Ming LG,et al. Functions and action mechanisms of flavonoids genistein and icariin in regulating bone remodeling. J Cell Physiol. 2013 Mar;228(3):513-21

>  <Row>
C

>  <SMILES>
CC(=CCC1=C(C=C(C2=C1OC(=C(C2=O)O)C3=CC=C(C=C3)OC)O)OC4C(C(C(C(O4)CO)O)O)O)C

>  <Target>
Others

>  <Weight>
10.1mg

$$$$
Lab-1.sdf
  ChemDraw05232018482D

 18 19  0  0  0  0  0  0  0  0999 V2000
   -2.5006    0.0000    0.0000 C   0  0  0  0  0  0  0  0  0  0  0  0
   -1.7862    0.0000    0.0000 O   0  0  0  0  0  0  0  0  0  0  0  0
   -1.7862    0.0000    0.0000 C   0  0  0  0  0  0  0  0  0  0  0  0
   -1.0717    0.0000    0.0000 C   0  0  0  0  0  0  0  0  0  0  0  0
   -1.0717    0.0000    0.0000 C   0  0  0  0  0  0  0  0  0  0  0  0
   -1.7862    0.0000    0.0000 C   0  0  0  0  0  0  0  0  0  0  0  0
   -2.5006    0.0000    0.0000 C   0  0  0  0  0  0  0  0  0  0  0  0
   -2.5006    0.0000    0.0000 C   0  0  0  0  0  0  0  0  0  0  0  0
   -3.2151    0.0000    0.0000 O   0  0  0  0  0  0  0  0  0  0  0  0
   -0.3572    0.0000    0.0000 C   0  0  0  0  0  0  0  0  0  0  0  0
    0.3573    0.0000    0.0000 C   0  0  0  0  0  0  0  0  0  0  0  0
    1.0717    0.0000    0.0000 C   0  0  0  0  0  0  0  0  0  0  0  0
    1.7862    0.0000    0.0000 C   0  0  0  0  0  0  0  0  0  0  0  0
    2.5007    0.0000    0.0000 C   0  0  0  0  0  0  0  0  0  0  0  0
    2.5007    0.0000    0.0000 C   0  0  0  0  0  0  0  0  0  0  0  0
    1.7862    0.0000    0.0000 C   0  0  0  0  0  0  0  0  0  0  0  0
    1.0717    0.0000    0.0000 C   0  0  0  0  0  0  0  0  0  0  0  0
    3.2151    0.0000    0.0000 O   0  0  0  0  0  0  0  0  0  0  0  0
  1  2  1  0      
  2  3  1  0      
  3  4  2  0      
  4  5  1  0      
  5  6  2  0      
  6  7  1  0      
  7  8  2  0      
  3  8  1  0      
  7  9  1  0      
 10  5  1  4      
 10 11  2  0      
 11 12  1  0      
 12 13  2  0      
 13 14  1  0      
 14 15  2  0      
 15 16  1  0      
 16 17  2  0      
 12 17  1  0      
 15 18  1  0      
M  END
>  <Bioactivity>
Pinostilbene markedly attenuates the phosphorylation of JNK and c-Jun triggered by 6-OHDA.

>  <CAS>
42438-89-1

>  <Col>
5

>  <Formula>
C15H14O3

>  <ID>
T3755

>  <Index>
824

>  <MOLENAME>
Pinostilbene

>  <MolWt>
242.273

>  <Pathways>
Others

>  <Plate>
PLATE 011

>  <QR code>
1151480582

>  <Receptor>
Others

>  <Reference>
 1.Chao J,et al.Protective effects of pinostilbene, a resveratrol methylated derivative, against 6-hydroxydopamine-induced neurotoxicity in SH-SY5Y cells.  2010 Jun;21(6):482-9.

>  <Row>
C

>  <SMILES>
COC1=CC(=CC(=C1)O)C=CC2=CC=C(C=C2)O

>  <Target>
Others

>  <Weight>
10.4mg

$$$$
Lab-1.sdf
  ChemDraw05232018482D

 39 41  0  0  0  0  0  0  0  0999 V2000
   -2.8579    0.0000    0.0000 H   0  0  0  0  0  0  0  0  0  0  0  0
   -3.5723    0.0000    0.0000 C   0  0  0  0  0  0  0  0  0  0  0  0
   -2.8579    0.0000    0.0000 O   0  0  0  0  0  0  0  0  0  0  0  0
   -2.1434    0.0000    0.0000 C   0  0  0  0  0  0  0  0  0  0  0  0
   -2.1434    0.0000    0.0000 O   0  0  0  0  0  0  0  0  0  0  0  0
   -1.4290    0.0000    0.0000 C   0  0  0  0  0  0  0  0  0  0  0  0
   -0.7145    0.0000    0.0000 C   0  0  0  0  0  0  0  0  0  0  0  0
   -0.7145    0.0000    0.0000 C   0  0  0  0  0  0  0  0  0  0  0  0
   -0.0001    0.0000    0.0000 C   0  0  0  0  0  0  0  0  0  0  0  0
    0.7145    0.0000    0.0000 C   0  0  0  0  0  0  0  0  0  0  0  0
    0.7145    0.0000    0.0000 O   0  0  0  0  0  0  0  0  0  0  0  0
    1.4289    0.0000    0.0000 O   0  0  0  0  0  0  0  0  0  0  0  0
    2.1433    0.0000    0.0000 C   0  0  0  0  0  0  0  0  0  0  0  0
    2.8578    0.0000    0.0000 C   0  0  0  0  0  0  0  0  0  0  0  0
    3.5723    0.0000    0.0000 C   0  0  0  0  0  0  0  0  0  0  0  0
    3.5723    0.0000    0.0000 C   0  0  0  0  0  0  0  0  0  0  0  0
    4.2868    0.0000    0.0000 C   0  0  0  0  0  0  0  0  0  0  0  0
    4.2868    0.0000    0.0000 O   0  0  0  0  0  0  0  0  0  0  0  0
    5.0012    0.0000    0.0000 C   0  0  0  0  0  0  0  0  0  0  0  0
    5.7157    0.0000    0.0000 O   0  0  0  0  0  0  0  0  0  0  0  0
    5.0012    0.0000    0.0000 C   0  0  0  0  0  0  0  0  0  0  0  0
    4.2868    0.0000    0.0000 C   0  0  0  0  0  0  0  0  0  0  0  0
   -1.4290    0.0000    0.0000 C   0  0  0  0  0  0  0  0  0  0  0  0
   -1.4290    0.0000    0.0000 C   0  0  0  0  0  0  0  0  0  0  0  0
   -0.7145    0.0000    0.0000 C   0  0  0  0  0  0  0  0  0  0  0  0
   -0.0001    0.0000    0.0000 C   0  0  0  0  0  0  0  0  0  0  0  0
    0.8204    0.0000    0.0000 O   0  0  0  0  0  0  0  0  0  0  0  0
   -0.0001    0.0000    0.0000 O   0  0  0  0  0  0  0  0  0  0  0  0
    0.7145    0.0000    0.0000 C   0  0  0  0  0  0  0  0  0  0  0  0
   -4.2868    0.0000    0.0000 O   0  0  0  0  0  0  0  0  0  0  0  0
   -5.0013    0.0000    0.0000 C   0  0  0  0  0  0  0  0  0  0  0  0
   -5.7157    0.0000    0.0000 C   0  0  0  0  0  0  0  0  0  0  0  0
   -5.7157    0.0000    0.0000 O   0  0  0  0  0  0  0  0  0  0  0  0
   -5.0013    0.0000    0.0000 C   0  0  0  0  0  0  0  0  0  0  0  0
   -5.7157    0.0000    0.0000 O   0  0  0  0  0  0  0  0  0  0  0  0
   -4.2868    0.0000    0.0000 C   0  0  0  0  0  0  0  0  0  0  0  0
   -4.2868    0.0000    0.0000 O   0  0  0  0  0  0  0  0  0  0  0  0
   -3.5723    0.0000    0.0000 C   0  0  0  0  0  0  0  0  0  0  0  0
   -2.8579    0.0000    0.0000 O   0  0  0  0  0  0  0  0  0  0  0  0
  2  1  1  1      
  2  3  1  6      
  4  3  1  6      
  4  5  1  0      
  5  6  1  0      
  6  7  2  0      
  7  8  1  0      
  8  9  1  1      
  9 10  1  0      
 10 11  2  0      
 10 12  1  0      
 12 13  1  0      
 13 14  1  0      
 14 15  1  0      
 15 16  2  0      
 16 17  1  0      
 17 18  1  0      
 17 19  2  0      
 19 20  1  0      
 19 21  1  0      
 21 22  2  0      
 15 22  1  0      
  8 23  1  0      
  4 23  1  0      
 23 24  2  0      
 24 25  1  0      
  7 26  1  0      
 26 27  2  0      
 26 28  1  0      
 28 29  1  0      
  2 30  1  0      
 30 31  1  0      
 31 32  1  6      
 32 33  1  0      
 31 34  1  0      
 34 35  1  1      
 34 36  1  0      
 36 37  1  6      
 36 38  1  0      
  2 38  1  0      
 38 39  1  1      
M  END
>  <Bioactivity>
Oleuropein is an antioxidant polyphenol isolated from olive leaf. Phase 2.

>  <CAS>
32619-42-4

>  <Col>
6

>  <Formula>
C25H32O13

>  <ID>
T6917

>  <Index>
825

>  <MOLENAME>
Oleuropein

>  <MolWt>
540.51

>  <Pathways>
Endocrinology & Hormones; Immunology & Inflammation

>  <Plate>
PLATE 011

>  <QR code>
1151480581

>  <Receptor>
Aromatase; ROS

>  <Reference>
1. Neves MA, et al. Combining computational and biochemical studies for a rationale on the anti-aromatase activity of natural polyphenols. ChemMedChem. 2007 Dec;2(12):1750-62.

>  <Row>
C

>  <SMILES>
[H][C@@]1(O[C@@H]2OC=C([C@@H](CC(=O)OCCC3=CC(O)=C(O)C=C3)\C2=C/C)C(=O)OC)O[C@H](CO)[C@@H](O)[C@H](O)[C@H]1O |r,c:5,20,t:14,17|

>  <Target>
Aromatase inhibitor; ROS inhibitor

>  <Weight>
10.3mg

$$$$
Lab-1.sdf
  ChemDraw05232018482D

 53 57  0  0  0  0  0  0  0  0999 V2000
   -2.6670    0.0000    0.0000 C   0  0  0  0  0  0  0  0  0  0  0  0
   -1.8466    0.0000    0.0000 C   0  0  0  0  0  0  0  0  0  0  0  0
   -1.5110    0.0000    0.0000 C   0  0  0  0  0  0  0  0  0  0  0  0
   -0.6905    0.0000    0.0000 C   0  0  0  0  0  0  0  0  0  0  0  0
   -0.2056    0.0000    0.0000 C   0  0  0  0  0  0  0  0  0  0  0  0
   -0.5412    0.0000    0.0000 C   0  0  0  0  0  0  0  0  0  0  0  0
   -1.3616    0.0000    0.0000 O   0  0  0  0  0  0  0  0  0  0  0  0
   -0.0562    0.0000    0.0000 O   0  0  0  0  0  0  0  0  0  0  0  0
   -0.3918    0.0000    0.0000 C   0  0  0  0  0  0  0  0  0  0  0  0
   -1.2123    0.0000    0.0000 C   0  0  0  0  0  0  0  0  0  0  0  0
   -1.5478    0.0000    0.0000 C   0  0  0  0  0  0  0  0  0  0  0  0
   -1.0629    0.0000    0.0000 O   0  0  0  0  0  0  0  0  0  0  0  0
   -0.2424    0.0000    0.0000 C   0  0  0  0  0  0  0  0  0  0  0  0
    0.0930    0.0000    0.0000 C   0  0  0  0  0  0  0  0  0  0  0  0
    0.9135    0.0000    0.0000 O   0  0  0  0  0  0  0  0  0  0  0  0
    1.2491    0.0000    0.0000 C   0  0  0  0  0  0  0  0  0  0  0  0
    0.7641    0.0000    0.0000 O   0  0  0  0  0  0  0  0  0  0  0  0
    2.0696    0.0000    0.0000 C   0  0  0  0  0  0  0  0  0  0  0  0
    2.5545    0.0000    0.0000 C   0  0  0  0  0  0  0  0  0  0  0  0
    3.3750    0.0000    0.0000 C   0  0  0  0  0  0  0  0  0  0  0  0
    3.8599    0.0000    0.0000 C   0  0  0  0  0  0  0  0  0  0  0  0
    4.6804    0.0000    0.0000 C   0  0  0  0  0  0  0  0  0  0  0  0
    5.0159    0.0000    0.0000 C   0  0  0  0  0  0  0  0  0  0  0  0
    4.5310    0.0000    0.0000 C   0  0  0  0  0  0  0  0  0  0  0  0
    3.7105    0.0000    0.0000 C   0  0  0  0  0  0  0  0  0  0  0  0
    5.8364    0.0000    0.0000 O   0  0  0  0  0  0  0  0  0  0  0  0
    5.1653    0.0000    0.0000 O   0  0  0  0  0  0  0  0  0  0  0  0
    0.2424    0.0000    0.0000 C   0  0  0  0  0  0  0  0  0  0  0  0
   -0.0931    0.0000    0.0000 O   0  0  0  0  0  0  0  0  0  0  0  0
    0.3918    0.0000    0.0000 C   0  0  0  0  0  0  0  0  0  0  0  0
    0.1368    0.0000    0.0000 C   0  0  0  0  0  0  0  0  0  0  0  0
    0.8043    0.0000    0.0000 C   0  0  0  0  0  0  0  0  0  0  0  0
    1.4717    0.0000    0.0000 C   0  0  0  0  0  0  0  0  0  0  0  0
    1.2168    0.0000    0.0000 O   0  0  0  0  0  0  0  0  0  0  0  0
    0.3993    0.0000    0.0000 C   0  0  0  0  0  0  0  0  0  0  0  0
    0.8192    0.0000    0.0000 O   0  0  0  0  0  0  0  0  0  0  0  0
    1.2093    0.0000    0.0000 O   0  0  0  0  0  0  0  0  0  0  0  0
   -0.6477    0.0000    0.0000 O   0  0  0  0  0  0  0  0  0  0  0  0
   -2.3683    0.0000    0.0000 O   0  0  0  0  0  0  0  0  0  0  0  0
   -2.7039    0.0000    0.0000 C   0  0  0  0  0  0  0  0  0  0  0  0
   -3.5243    0.0000    0.0000 C   0  0  0  0  0  0  0  0  0  0  0  0
   -3.8599    0.0000    0.0000 C   0  0  0  0  0  0  0  0  0  0  0  0
   -4.6804    0.0000    0.0000 C   0  0  0  0  0  0  0  0  0  0  0  0
   -5.0159    0.0000    0.0000 C   0  0  0  0  0  0  0  0  0  0  0  0
   -4.5310    0.0000    0.0000 C   0  0  0  0  0  0  0  0  0  0  0  0
   -3.7105    0.0000    0.0000 C   0  0  0  0  0  0  0  0  0  0  0  0
   -3.3750    0.0000    0.0000 C   0  0  0  0  0  0  0  0  0  0  0  0
   -4.8666    0.0000    0.0000 O   0  0  0  0  0  0  0  0  0  0  0  0
   -5.8364    0.0000    0.0000 O   0  0  0  0  0  0  0  0  0  0  0  0
   -1.6972    0.0000    0.0000 O   0  0  0  0  0  0  0  0  0  0  0  0
    0.6148    0.0000    0.0000 O   0  0  0  0  0  0  0  0  0  0  0  0
   -0.3550    0.0000    0.0000 O   0  0  0  0  0  0  0  0  0  0  0  0
   -1.9959    0.0000    0.0000 O   0  0  0  0  0  0  0  0  0  0  0  0
  1  2  1  0      
  2  3  1  0      
  3  4  1  0      
  4  5  1  0      
  5  6  1  0      
  6  7  1  0      
  2  7  1  0      
  6  8  1  0      
  8  9  1  0      
  9 10  1  0      
 10 11  1  0      
 11 12  1  0      
 12 13  1  0      
 13 14  1  0      
  9 14  1  0      
 14 15  1  0      
 15 16  1  0      
 16 17  2  0      
 18 16  1  4      
 18 19  2  0      
 19 20  1  0      
 20 21  2  0      
 21 22  1  0      
 22 23  2  0      
 23 24  1  0      
 24 25  2  0      
 20 25  1  0      
 23 26  1  0      
 22 27  1  0      
 13 28  1  0      
 28 29  1  0      
 29 30  1  0      
 30 31  1  0      
 31 32  1  0      
 32 33  1  0      
 33 34  1  0      
 30 34  1  0      
 32 35  1  0      
 35 36  1  0      
 32 37  1  0      
 31 38  1  0      
 11 39  1  0      
 39 40  1  0      
 40 41  1  0      
 41 42  1  0      
 42 43  2  0      
 43 44  1  0      
 44 45  2  0      
 45 46  1  0      
 46 47  2  0      
 42 47  1  0      
 45 48  1  0      
 44 49  1  0      
 10 50  1  0      
  5 51  1  0      
  4 52  1  0      
  3 53  1  0      
M  END
>  <Bioactivity>
 Forsythoside B inhibits inflammatory response,and has antioxidant properties. Potent neuroprotective effects with a favorable therapeutic time-window, reduce of cerebral ischemia and reperfusion inj
ury degree, attenuating blood-brain barrier (BBB) breakdown; Rescued cardiac function from I/R injury.Forsythoside B has antisepsis effect, is mediated by decreasing local and systemic levels of a w
ide spectrum of inflammatory mediators. Its antisepsis mechanism may be that Forsythoside B binds to LPS and reduces the biological activity of serum LPS, and inhibits NF-¦ÊB activition.

>  <CAS>
81525-13-5

>  <Col>
7

>  <Formula>
C34H44O19

>  <ID>
T3893

>  <Index>
826

>  <MOLENAME>
Forsythoside B

>  <MolWt>
756.707

>  <Pathways>
Immunology/ Inflammation; Jak/STAT

>  <Plate>
PLATE 011

>  <QR code>
1151480580

>  <Receptor>
NF-¦ÊB

>  <Reference>
1. Jiang WL,et al. Forsythoside B protects against experimental sepsis by modulating inflammatory factors. Phytother Res. 2012 Jul;26(7):981-7.

>  <Row>
C

>  <SMILES>
CC1C(C(C(C(O1)OC2C(C(OC(C2OC(=O)C=CC3=CC(=C(C=C3)O)O)COC4C(C(CO4)(CO)O)O)OCCC5=CC(=C(C=C5)O)O)O)O)O)O

>  <Target>
NF-¦ÊB

>  <Weight>
10.1mg

$$$$
Lab-1.sdf
  ChemDraw05232018482D

 20 22  0  0  0  0  0  0  0  0999 V2000
   -2.1433    0.0000    0.0000 C   0  0  0  0  0  0  0  0  0  0  0  0
   -1.4290    0.0000    0.0000 O   0  0  0  0  0  0  0  0  0  0  0  0
   -1.4290    0.0000    0.0000 C   0  0  0  0  0  0  0  0  0  0  0  0
   -0.7145    0.0000    0.0000 C   0  0  0  0  0  0  0  0  0  0  0  0
   -0.0000    0.0000    0.0000 C   0  0  0  0  0  0  0  0  0  0  0  0
   -0.0000    0.0000    0.0000 O   0  0  0  0  0  0  0  0  0  0  0  0
    0.7145    0.0000    0.0000 C   0  0  0  0  0  0  0  0  0  0  0  0
    0.7145    0.0000    0.0000 C   0  0  0  0  0  0  0  0  0  0  0  0
   -0.0000    0.0000    0.0000 O   0  0  0  0  0  0  0  0  0  0  0  0
   -0.7145    0.0000    0.0000 C   0  0  0  0  0  0  0  0  0  0  0  0
   -1.4290    0.0000    0.0000 C   0  0  0  0  0  0  0  0  0  0  0  0
   -2.1433    0.0000    0.0000 C   0  0  0  0  0  0  0  0  0  0  0  0
   -2.1433    0.0000    0.0000 C   0  0  0  0  0  0  0  0  0  0  0  0
   -2.8578    0.0000    0.0000 O   0  0  0  0  0  0  0  0  0  0  0  0
    1.4289    0.0000    0.0000 C   0  0  0  0  0  0  0  0  0  0  0  0
    2.1433    0.0000    0.0000 C   0  0  0  0  0  0  0  0  0  0  0  0
    2.8578    0.0000    0.0000 C   0  0  0  0  0  0  0  0  0  0  0  0
    2.8578    0.0000    0.0000 C   0  0  0  0  0  0  0  0  0  0  0  0
    2.1433    0.0000    0.0000 C   0  0  0  0  0  0  0  0  0  0  0  0
    1.4289    0.0000    0.0000 C   0  0  0  0  0  0  0  0  0  0  0  0
  1  2  1  0      
  2  3  1  0      
  3  4  2  0      
  4  5  1  0      
  5  6  2  0      
  5  7  1  0      
  7  8  1  0      
  8  9  1  0      
  9 10  1  0      
  4 10  1  0      
 10 11  2  0      
 11 12  1  0      
 12 13  2  0      
  3 13  1  0      
 12 14  1  0      
  8 15  1  0      
 15 16  2  0      
 16 17  1  0      
 17 18  2  0      
 18 19  1  0      
 19 20  2  0      
 15 20  1  0      
M  END
>  <Bioactivity>
Alpinetin has antibacterial activity.Alpinetin has anti-inflammatory activity.Alpinetin can enhance the sensitivity of HepG2 hepatoma cells to the chemotherapeutic agent CDDP. Alpinetin has strong a
nti-hepatoma and pancreatic cancer cells effects, by inhibiting proliferation ,regulating of the Bcl-2 family and XIAP expression, releasing of cytochrome c and activating caspases.

>  <CAS>
36052-37-6

>  <Col>
8

>  <Formula>
C16H14O4

>  <ID>
T3867

>  <Index>
827

>  <MOLENAME>
Alpinetin

>  <MolWt>
270.284

>  <Pathways>
Apoptosis

>  <Plate>
PLATE 011

>  <QR code>
1151480579

>  <Receptor>
Bcl-2

>  <Reference>
1. Guan S,et al. Immunosuppressive activity of alpinetin on activation and cytokines secretion of murine T lymphocytes. Immunopharmacol Immunotoxicol. 2014 Aug;36(4):290-6. 

>  <Row>
C

>  <SMILES>
COC1=C2C(=O)CC(OC2=CC(=C1)O)C3=CC=CC=C3

>  <Target>
Bcl-2 inhibitor

>  <Weight>
10.3mg

$$$$
Lab-1.sdf
  ChemDraw05232018482D

 22 24  0  0  0  0  0  0  0  0999 V2000
   -3.5723    0.0000    0.0000 C   0  0  0  0  0  0  0  0  0  0  0  0
   -2.8578    0.0000    0.0000 O   0  0  0  0  0  0  0  0  0  0  0  0
   -2.1435    0.0000    0.0000 C   0  0  0  0  0  0  0  0  0  0  0  0
   -2.1435    0.0000    0.0000 C   0  0  0  0  0  0  0  0  0  0  0  0
   -1.4289    0.0000    0.0000 C   0  0  0  0  0  0  0  0  0  0  0  0
   -0.7145    0.0000    0.0000 C   0  0  0  0  0  0  0  0  0  0  0  0
   -0.7145    0.0000    0.0000 C   0  0  0  0  0  0  0  0  0  0  0  0
   -1.4289    0.0000    0.0000 C   0  0  0  0  0  0  0  0  0  0  0  0
   -1.4289    0.0000    0.0000 O   0  0  0  0  0  0  0  0  0  0  0  0
   -0.0001    0.0000    0.0000 C   0  0  0  0  0  0  0  0  0  0  0  0
   -0.0001    0.0000    0.0000 O   0  0  0  0  0  0  0  0  0  0  0  0
    0.7144    0.0000    0.0000 C   0  0  0  0  0  0  0  0  0  0  0  0
    0.7144    0.0000    0.0000 C   0  0  0  0  0  0  0  0  0  0  0  0
   -0.0001    0.0000    0.0000 O   0  0  0  0  0  0  0  0  0  0  0  0
    1.4289    0.0000    0.0000 C   0  0  0  0  0  0  0  0  0  0  0  0
    1.4289    0.0000    0.0000 C   0  0  0  0  0  0  0  0  0  0  0  0
    2.1434    0.0000    0.0000 C   0  0  0  0  0  0  0  0  0  0  0  0
    2.8578    0.0000    0.0000 C   0  0  0  0  0  0  0  0  0  0  0  0
    2.8578    0.0000    0.0000 C   0  0  0  0  0  0  0  0  0  0  0  0
    2.1434    0.0000    0.0000 C   0  0  0  0  0  0  0  0  0  0  0  0
    3.5723    0.0000    0.0000 O   0  0  0  0  0  0  0  0  0  0  0  0
   -2.8578    0.0000    0.0000 O   0  0  0  0  0  0  0  0  0  0  0  0
  1  2  1  0      
  2  3  1  0      
  3  4  2  0      
  4  5  1  0      
  5  6  2  0      
  6  7  1  0      
  7  8  2  0      
  3  8  1  0      
  8  9  1  0      
  7 10  1  0      
 10 11  2  0      
 10 12  1  0      
 12 13  2  0      
 13 14  1  0      
  6 14  1  0      
 12 15  1  0      
 15 16  2  0      
 16 17  1  0      
 17 18  2  0      
 18 19  1  0      
 19 20  2  0      
 15 20  1  0      
 18 21  1  0      
  4 22  1  0      
M  END
>  <Bioactivity>
Tectorigenin is an isoflavone and  of apoptosis in human HL-60 cells.

>  <CAS>
548-77-6

>  <Col>
9

>  <Formula>
C16H12O6

>  <ID>
T3488

>  <Index>
828

>  <MOLENAME>
Tectorigenin

>  <MolWt>
300.266

>  <Pathways>
Apoptosis 

>  <Plate>
PLATE 011

>  <QR code>
1151480578

>  <Receptor>
Apoptosis 

>  <Reference>
1.Li QY, Chen L, Yan MM,et al.Tectorigenin regulates adipogenic differentiation and adipocytokines secretion via PPAR¦Ã and IKK/NF-¦ÊB signaling.Pharm Biol. 2015;53(11):1567-75.

>  <Row>
C

>  <SMILES>
COC1=C(C=C2C(=C1O)C(=O)C(=CO2)C3=CC=C(C=C3)O)O

>  <Target>
Apoptosis  inducer

>  <Weight>
10.4mg

$$$$
Lab-1.sdf
  ChemDraw05232018482D

 85 94  0  0  0  0  0  0  0  0999 V2000
    4.0106    0.0000    0.0000 C   0  0  0  0  0  0  0  0  0  0  0  0
    3.5981    0.0000    0.0000 C   0  0  0  0  0  0  0  0  0  0  0  0
    4.0106    0.0000    0.0000 C   0  0  0  0  0  0  0  0  0  0  0  0
    3.5981    0.0000    0.0000 C   0  0  0  0  0  0  0  0  0  0  0  0
    2.7731    0.0000    0.0000 C   0  0  0  0  0  0  0  0  0  0  0  0
    2.3606    0.0000    0.0000 C   0  0  0  0  0  0  0  0  0  0  0  0
    2.7731    0.0000    0.0000 O   0  0  0  0  0  0  0  0  0  0  0  0
    1.5356    0.0000    0.0000 O   0  0  0  0  0  0  0  0  0  0  0  0
    1.1231    0.0000    0.0000 C   0  0  0  0  0  0  0  0  0  0  0  0
    1.5356    0.0000    0.0000 C   0  0  0  0  0  0  0  0  0  0  0  0
    1.1231    0.0000    0.0000 C   0  0  0  0  0  0  0  0  0  0  0  0
    0.2981    0.0000    0.0000 C   0  0  0  0  0  0  0  0  0  0  0  0
   -0.1143    0.0000    0.0000 O   0  0  0  0  0  0  0  0  0  0  0  0
    0.2981    0.0000    0.0000 C   0  0  0  0  0  0  0  0  0  0  0  0
   -0.1143    0.0000    0.0000 O   0  0  0  0  0  0  0  0  0  0  0  0
   -0.9393    0.0000    0.0000 C   0  0  0  0  0  0  0  0  0  0  0  0
   -1.3518    0.0000    0.0000 O   0  0  0  0  0  0  0  0  0  0  0  0
   -1.3518    0.0000    0.0000 C   0  0  0  0  0  0  0  0  0  0  0  0
   -0.5268    0.0000    0.0000 C   0  0  0  0  0  0  0  0  0  0  0  0
   -0.1143    0.0000    0.0000 C   0  0  0  0  0  0  0  0  0  0  0  0
   -0.5268    0.0000    0.0000 C   0  0  0  0  0  0  0  0  0  0  0  0
   -1.3518    0.0000    0.0000 C   0  0  0  0  0  0  0  0  0  0  0  0
   -1.7643    0.0000    0.0000 C   0  0  0  0  0  0  0  0  0  0  0  0
   -2.5893    0.0000    0.0000 C   0  0  0  0  0  0  0  0  0  0  0  0
   -3.0018    0.0000    0.0000 C   0  0  0  0  0  0  0  0  0  0  0  0
   -3.8268    0.0000    0.0000 C   0  0  0  0  0  0  0  0  0  0  0  0
   -4.2393    0.0000    0.0000 C   0  0  0  0  0  0  0  0  0  0  0  0
   -3.8268    0.0000    0.0000 C   0  0  0  0  0  0  0  0  0  0  0  0
   -3.0018    0.0000    0.0000 C   0  0  0  0  0  0  0  0  0  0  0  0
   -2.5893    0.0000    0.0000 C   0  0  0  0  0  0  0  0  0  0  0  0
   -1.7643    0.0000    0.0000 C   0  0  0  0  0  0  0  0  0  0  0  0
   -1.8506    0.0000    0.0000 O   0  0  0  0  0  0  0  0  0  0  0  0
   -3.4143    0.0000    0.0000 C   0  0  0  0  0  0  0  0  0  0  0  0
   -4.2393    0.0000    0.0000 C   0  0  0  0  0  0  0  0  0  0  0  0
   -5.0643    0.0000    0.0000 C   0  0  0  0  0  0  0  0  0  0  0  0
   -5.4768    0.0000    0.0000 C   0  0  0  0  0  0  0  0  0  0  0  0
   -5.0643    0.0000    0.0000 C   0  0  0  0  0  0  0  0  0  0  0  0
   -5.4768    0.0000    0.0000 C   0  0  0  0  0  0  0  0  0  0  0  0
   -6.3018    0.0000    0.0000 C   0  0  0  0  0  0  0  0  0  0  0  0
   -6.7143    0.0000    0.0000 C   0  0  0  0  0  0  0  0  0  0  0  0
   -6.3018    0.0000    0.0000 C   0  0  0  0  0  0  0  0  0  0  0  0
   -7.0015    0.0000    0.0000 C   0  0  0  0  0  0  0  0  0  0  0  0
   -7.7298    0.0000    0.0000 O   0  0  0  0  0  0  0  0  0  0  0  0
   -6.3306    0.0000    0.0000 C   0  0  0  0  0  0  0  0  0  0  0  0
   -7.0591    0.0000    0.0000 O   0  0  0  0  0  0  0  0  0  0  0  0
   -7.5392    0.0000    0.0000 O   0  0  0  0  0  0  0  0  0  0  0  0
   -7.9517    0.0000    0.0000 C   0  0  0  0  0  0  0  0  0  0  0  0
   -8.7767    0.0000    0.0000 C   0  0  0  0  0  0  0  0  0  0  0  0
   -9.1892    0.0000    0.0000 C   0  0  0  0  0  0  0  0  0  0  0  0
   -8.7767    0.0000    0.0000 C   0  0  0  0  0  0  0  0  0  0  0  0
   -7.9517    0.0000    0.0000 C   0  0  0  0  0  0  0  0  0  0  0  0
   -7.5392    0.0000    0.0000 O   0  0  0  0  0  0  0  0  0  0  0  0
   -7.5392    0.0000    0.0000 C   0  0  0  0  0  0  0  0  0  0  0  0
   -7.9517    0.0000    0.0000 O   0  0  0  0  0  0  0  0  0  0  0  0
   -9.1892    0.0000    0.0000 O   0  0  0  0  0  0  0  0  0  0  0  0
  -10.0142    0.0000    0.0000 O   0  0  0  0  0  0  0  0  0  0  0  0
   -9.1892    0.0000    0.0000 O   0  0  0  0  0  0  0  0  0  0  0  0
   -6.7143    0.0000    0.0000 O   0  0  0  0  0  0  0  0  0  0  0  0
   -4.6518    0.0000    0.0000 C   0  0  0  0  0  0  0  0  0  0  0  0
   -3.9131    0.0000    0.0000 C   0  0  0  0  0  0  0  0  0  0  0  0
   -0.4980    0.0000    0.0000 C   0  0  0  0  0  0  0  0  0  0  0  0
    0.1727    0.0000    0.0000 C   0  0  0  0  0  0  0  0  0  0  0  0
    1.5356    0.0000    0.0000 O   0  0  0  0  0  0  0  0  0  0  0  0
    2.3606    0.0000    0.0000 O   0  0  0  0  0  0  0  0  0  0  0  0
    2.3606    0.0000    0.0000 O   0  0  0  0  0  0  0  0  0  0  0  0
    4.0106    0.0000    0.0000 O   0  0  0  0  0  0  0  0  0  0  0  0
    4.8356    0.0000    0.0000 O   0  0  0  0  0  0  0  0  0  0  0  0
    5.2481    0.0000    0.0000 C   0  0  0  0  0  0  0  0  0  0  0  0
    6.0731    0.0000    0.0000 C   0  0  0  0  0  0  0  0  0  0  0  0
    6.4856    0.0000    0.0000 C   0  0  0  0  0  0  0  0  0  0  0  0
    6.0731    0.0000    0.0000 C   0  0  0  0  0  0  0  0  0  0  0  0
    5.2481    0.0000    0.0000 C   0  0  0  0  0  0  0  0  0  0  0  0
    4.8356    0.0000    0.0000 O   0  0  0  0  0  0  0  0  0  0  0  0
    6.4856    0.0000    0.0000 O   0  0  0  0  0  0  0  0  0  0  0  0
    7.3105    0.0000    0.0000 O   0  0  0  0  0  0  0  0  0  0  0  0
    7.7230    0.0000    0.0000 C   0  0  0  0  0  0  0  0  0  0  0  0
    8.5435    0.0000    0.0000 C   0  0  0  0  0  0  0  0  0  0  0  0
    8.7150    0.0000    0.0000 C   0  0  0  0  0  0  0  0  0  0  0  0
    8.0005    0.0000    0.0000 C   0  0  0  0  0  0  0  0  0  0  0  0
    7.3874    0.0000    0.0000 O   0  0  0  0  0  0  0  0  0  0  0  0
    9.5363    0.0000    0.0000 C   0  0  0  0  0  0  0  0  0  0  0  0
   10.0142    0.0000    0.0000 O   0  0  0  0  0  0  0  0  0  0  0  0
    9.2069    0.0000    0.0000 O   0  0  0  0  0  0  0  0  0  0  0  0
    9.0955    0.0000    0.0000 O   0  0  0  0  0  0  0  0  0  0  0  0
    6.4856    0.0000    0.0000 O   0  0  0  0  0  0  0  0  0  0  0  0
  1  2  1  0      
  2  3  1  0      
  3  4  1  0      
  4  5  1  0      
  5  6  1  0      
  6  7  1  0      
  2  7  1  0      
  6  8  1  0      
  8  9  1  0      
  9 10  1  0      
 10 11  1  0      
 11 12  1  0      
 12 13  1  0      
 13 14  1  0      
  9 14  1  0      
 14 15  1  0      
 15 16  1  0      
 16 17  2  0      
 16 18  1  0      
 18 19  1  0      
 19 20  1  0      
 20 21  1  0      
 21 22  1  0      
 22 23  1  0      
 18 23  1  0      
 23 24  1  0      
 24 25  2  0      
 25 26  1  0      
 26 27  1  0      
 27 28  1  0      
 28 29  1  0      
 24 29  1  0      
 29 30  1  0      
 30 31  1  0      
 18 31  1  0      
 31 32  1  0      
 29 33  1  0      
 28 34  1  0      
 34 35  1  0      
 35 36  1  0      
 36 37  1  0      
 27 37  1  0      
 37 38  1  0      
 38 39  1  0      
 39 40  1  0      
 40 41  1  0      
 36 41  1  0      
 41 42  1  0      
 42 43  1  0      
 41 44  1  0      
 44 45  1  0      
 40 46  1  0      
 46 47  1  0      
 47 48  1  0      
 48 49  1  0      
 49 50  1  0      
 50 51  1  0      
 51 52  1  0      
 47 52  1  0      
 51 53  1  0      
 53 54  1  0      
 50 55  1  0      
 49 56  1  0      
 48 57  1  0      
 39 58  1  0      
 37 59  1  0      
 28 60  1  0      
 21 61  1  0      
 21 62  1  0      
 11 63  1  0      
 10 64  1  0      
  5 65  1  0      
  4 66  1  0      
  3 67  1  0      
 67 68  1  0      
 68 69  1  0      
 69 70  1  0      
 70 71  1  0      
 71 72  1  0      
 72 73  1  0      
 68 73  1  0      
 71 74  1  0      
 70 75  1  0      
 75 76  1  0      
 76 77  1  0      
 77 78  1  0      
 78 79  1  0      
 79 80  1  0      
 76 80  1  0      
 78 81  1  0      
 81 82  1  0      
 78 83  1  0      
 77 84  1  0      
 69 85  1  0      
M  END
>  <Bioactivity>
Platycodin D may stimulate TNF-¦Á synthesis or inhibit degradation of TNF-¦Á mRNA.Platycodin D suppresses prostaglandin E2 production at 10 and 30 ¦ÌM in rat peritoneal macrophages stimulated by the 
protein kinase C activator 12-O-tetradecanoylphorbol 13-acetate (TPA). Platycodin D and D3 are useful as expectorant agents in the treatment of various airway diseases, they can increase mucin releas
e from rat and hamster tracheal surface epithelial cell culture and also from intact rat trachea upon nebulization.

>  <CAS>
58479-68-8

>  <Col>
10

>  <Formula>
C57H92O28

>  <ID>
T3889

>  <Index>
829

>  <MOLENAME>
Platycodin D

>  <MolWt>
1225.335

>  <Pathways>
Endocrinology/ Hormones

>  <Plate>
PLATE 011

>  <QR code>
1151480577

>  <Receptor>
Prostaglandin E2

>  <Reference>
1. Kwon OG,ET AL. The Effects of Platycodin D, a Saponin Purified from Platycodi Radix, on Collagen-Induced DBA/1J Mouse Rheumatoid Arthritis. Evid Based Complement Alternat Med. 2014;2014:954508.

>  <Row>
C

>  <SMILES>
CC1C(C(C(C(O1)OC2C(C(COC2OC(=O)C34CCC(CC3C5=CCC6C(C5(CC4O)C)(CCC7C6(CC(C(C7(CO)CO)OC8C(C(C(C(O8)CO)O)O)O)O)C)C)(C)C)O)O)O)O)OC9C(C(C(CO9)O)OC1C(C(CO1)(CO)O)O)O

>  <Target>
Prostaglandin

>  <Weight>
10.1mg

$$$$
Lab-1.sdf
  ChemDraw05232018482D

 67 74  0  0  0  0  0  0  0  0999 V2000
   -4.0752    0.0000    0.0000 C   0  0  0  0  0  0  0  0  0  0  0  0
   -3.3000    0.0000    0.0000 C   0  0  0  0  0  0  0  0  0  0  0  0
   -3.7125    0.0000    0.0000 C   0  0  0  0  0  0  0  0  0  0  0  0
   -3.3000    0.0000    0.0000 C   0  0  0  0  0  0  0  0  0  0  0  0
   -2.4750    0.0000    0.0000 C   0  0  0  0  0  0  0  0  0  0  0  0
   -2.0625    0.0000    0.0000 C   0  0  0  0  0  0  0  0  0  0  0  0
   -1.2375    0.0000    0.0000 C   0  0  0  0  0  0  0  0  0  0  0  0
   -0.8250    0.0000    0.0000 C   0  0  0  0  0  0  0  0  0  0  0  0
   -1.2375    0.0000    0.0000 C   0  0  0  0  0  0  0  0  0  0  0  0
   -0.8250    0.0000    0.0000 C   0  0  0  0  0  0  0  0  0  0  0  0
   -0.0000    0.0000    0.0000 C   0  0  0  0  0  0  0  0  0  0  0  0
    0.4125    0.0000    0.0000 C   0  0  0  0  0  0  0  0  0  0  0  0
   -0.0000    0.0000    0.0000 C   0  0  0  0  0  0  0  0  0  0  0  0
    0.4125    0.0000    0.0000 C   0  0  0  0  0  0  0  0  0  0  0  0
    1.2375    0.0000    0.0000 C   0  0  0  0  0  0  0  0  0  0  0  0
    1.6500    0.0000    0.0000 C   0  0  0  0  0  0  0  0  0  0  0  0
    1.2375    0.0000    0.0000 C   0  0  0  0  0  0  0  0  0  0  0  0
    1.6500    0.0000    0.0000 C   0  0  0  0  0  0  0  0  0  0  0  0
    2.4750    0.0000    0.0000 C   0  0  0  0  0  0  0  0  0  0  0  0
    2.8875    0.0000    0.0000 C   0  0  0  0  0  0  0  0  0  0  0  0
    2.4750    0.0000    0.0000 C   0  0  0  0  0  0  0  0  0  0  0  0
    3.1747    0.0000    0.0000 C   0  0  0  0  0  0  0  0  0  0  0  0
    2.5038    0.0000    0.0000 C   0  0  0  0  0  0  0  0  0  0  0  0
    3.7125    0.0000    0.0000 O   0  0  0  0  0  0  0  0  0  0  0  0
    4.1250    0.0000    0.0000 C   0  0  0  0  0  0  0  0  0  0  0  0
    3.7125    0.0000    0.0000 C   0  0  0  0  0  0  0  0  0  0  0  0
    4.1250    0.0000    0.0000 C   0  0  0  0  0  0  0  0  0  0  0  0
    4.9500    0.0000    0.0000 C   0  0  0  0  0  0  0  0  0  0  0  0
    5.3625    0.0000    0.0000 C   0  0  0  0  0  0  0  0  0  0  0  0
    4.9500    0.0000    0.0000 O   0  0  0  0  0  0  0  0  0  0  0  0
    6.1875    0.0000    0.0000 C   0  0  0  0  0  0  0  0  0  0  0  0
    6.6000    0.0000    0.0000 O   0  0  0  0  0  0  0  0  0  0  0  0
    6.6000    0.0000    0.0000 O   0  0  0  0  0  0  0  0  0  0  0  0
    5.3625    0.0000    0.0000 O   0  0  0  0  0  0  0  0  0  0  0  0
    3.7125    0.0000    0.0000 O   0  0  0  0  0  0  0  0  0  0  0  0
    2.8875    0.0000    0.0000 O   0  0  0  0  0  0  0  0  0  0  0  0
    2.4750    0.0000    0.0000 C   0  0  0  0  0  0  0  0  0  0  0  0
    1.6500    0.0000    0.0000 C   0  0  0  0  0  0  0  0  0  0  0  0
    1.2375    0.0000    0.0000 C   0  0  0  0  0  0  0  0  0  0  0  0
    1.6500    0.0000    0.0000 C   0  0  0  0  0  0  0  0  0  0  0  0
    2.4750    0.0000    0.0000 C   0  0  0  0  0  0  0  0  0  0  0  0
    2.8875    0.0000    0.0000 O   0  0  0  0  0  0  0  0  0  0  0  0
    2.8875    0.0000    0.0000 C   0  0  0  0  0  0  0  0  0  0  0  0
    2.4750    0.0000    0.0000 O   0  0  0  0  0  0  0  0  0  0  0  0
    1.2375    0.0000    0.0000 O   0  0  0  0  0  0  0  0  0  0  0  0
    0.4125    0.0000    0.0000 O   0  0  0  0  0  0  0  0  0  0  0  0
    1.2375    0.0000    0.0000 O   0  0  0  0  0  0  0  0  0  0  0  0
    0.8250    0.0000    0.0000 C   0  0  0  0  0  0  0  0  0  0  0  0
   -0.4125    0.0000    0.0000 C   0  0  0  0  0  0  0  0  0  0  0  0
   -2.0625    0.0000    0.0000 C   0  0  0  0  0  0  0  0  0  0  0  0
   -2.4750    0.0000    0.0000 C   0  0  0  0  0  0  0  0  0  0  0  0
   -0.9112    0.0000    0.0000 C   0  0  0  0  0  0  0  0  0  0  0  0
   -2.8875    0.0000    0.0000 C   0  0  0  0  0  0  0  0  0  0  0  0
   -2.4750    0.0000    0.0000 O   0  0  0  0  0  0  0  0  0  0  0  0
   -3.7125    0.0000    0.0000 O   0  0  0  0  0  0  0  0  0  0  0  0
   -4.1250    0.0000    0.0000 C   0  0  0  0  0  0  0  0  0  0  0  0
   -3.7125    0.0000    0.0000 C   0  0  0  0  0  0  0  0  0  0  0  0
   -4.1250    0.0000    0.0000 C   0  0  0  0  0  0  0  0  0  0  0  0
   -4.9500    0.0000    0.0000 C   0  0  0  0  0  0  0  0  0  0  0  0
   -5.3625    0.0000    0.0000 C   0  0  0  0  0  0  0  0  0  0  0  0
   -4.9500    0.0000    0.0000 O   0  0  0  0  0  0  0  0  0  0  0  0
   -6.1875    0.0000    0.0000 C   0  0  0  0  0  0  0  0  0  0  0  0
   -6.6000    0.0000    0.0000 O   0  0  0  0  0  0  0  0  0  0  0  0
   -5.3625    0.0000    0.0000 O   0  0  0  0  0  0  0  0  0  0  0  0
   -3.7125    0.0000    0.0000 O   0  0  0  0  0  0  0  0  0  0  0  0
   -2.8875    0.0000    0.0000 O   0  0  0  0  0  0  0  0  0  0  0  0
   -3.1567    0.0000    0.0000 C   0  0  0  0  0  0  0  0  0  0  0  0
  1  2  1  0      
  2  3  1  0      
  3  4  1  0      
  4  5  1  0      
  5  6  1  0      
  6  7  1  0      
  7  8  1  0      
  8  9  1  0      
  9 10  2  0      
 10 11  1  0      
 11 12  1  0      
 12 13  1  0      
  8 13  1  0      
 13 14  1  0      
 14 15  1  0      
 15 16  1  0      
 16 17  1  0      
 12 17  1  0      
 17 18  1  0      
 18 19  1  0      
 19 20  1  0      
 20 21  1  0      
 16 21  1  0      
 21 22  1  0      
 21 23  1  0      
 20 24  1  0      
 24 25  1  0      
 25 26  1  0      
 26 27  1  0      
 27 28  1  0      
 28 29  1  0      
 29 30  1  0      
 25 30  1  0      
 29 31  1  0      
 31 32  2  0      
 31 33  1  0      
 28 34  1  0      
 27 35  1  0      
 26 36  1  0      
 36 37  1  0      
 37 38  1  0      
 38 39  1  0      
 39 40  1  0      
 40 41  1  0      
 41 42  1  0      
 37 42  1  0      
 41 43  1  0      
 43 44  1  0      
 40 45  1  0      
 39 46  1  0      
 38 47  1  0      
 17 48  1  0      
 13 49  1  0      
  9 50  1  0      
  5 50  1  0      
 50 51  1  0      
  2 51  1  0      
  8 52  1  0      
  5 53  1  0      
 53 54  2  0      
 53 55  1  0      
 55 56  1  0      
 56 57  1  0      
 57 58  1  0      
 58 59  1  0      
 59 60  1  0      
 60 61  1  0      
 56 61  1  0      
 60 62  1  0      
 62 63  1  0      
 59 64  1  0      
 58 65  1  0      
 57 66  1  0      
  2 67  1  0      
M  END
>  <Bioactivity>
Ginsenoside Ro, the predominant ginsenoside in the rhizome, is reported to have anti-infllammtory, anti-hepatitic activities, and  showed inhibitory activity against 5¦ÁR with IC(50) value of 259.4 ¦Ì
m

>  <CAS>
34367-04-9

>  <Col>
11

>  <Formula>
C48H76O19

>  <ID>
T3915

>  <Index>
830

>  <MOLENAME>
GinsenosideRo

>  <MolWt>
957.109

>  <Pathways>
Enzyme

>  <Plate>
PLATE 011

>  <QR code>
1151480576

>  <Receptor>
5¦Á-reductase

>  <Reference>
1. Kang HJ, et al. Antioxidative properties of ginsenoside Ro against UV-B-induced oxidative stress in human dermal fibroblasts. Biosci Biotechnol Biochem. 2015 Jul 27:1-4.

>  <Row>
C

>  <SMILES>
CC1(CCC2(CCC3(C(=CCC4C3(CCC5C4(CCC(C5(C)C)OC6C(C(C(C(O6)C(=O)O)O)O)OC7C(C(C(C(O7)CO)O)O)O)C)C)C2C1)C)C(=O)OC8C(C(C(C(O8)CO)O)O)O)C

>  <Target>
Reductase inhibitor

>  <Weight>
10.4mg

$$$$
Lab-1.sdf
  ChemDraw05232018482D

 13 13  0  0  0  0  0  0  0  0999 V2000
   -0.7144    0.0000    0.0000 C   0  0  0  0  0  0  0  0  0  0  0  0
    0.0000    0.0000    0.0000 O   0  0  0  0  0  0  0  0  0  0  0  0
    0.0000    0.0000    0.0000 C   0  0  0  0  0  0  0  0  0  0  0  0
    0.7144    0.0000    0.0000 C   0  0  0  0  0  0  0  0  0  0  0  0
    0.7144    0.0000    0.0000 C   0  0  0  0  0  0  0  0  0  0  0  0
    0.0000    0.0000    0.0000 C   0  0  0  0  0  0  0  0  0  0  0  0
   -0.7144    0.0000    0.0000 C   0  0  0  0  0  0  0  0  0  0  0  0
   -0.7144    0.0000    0.0000 C   0  0  0  0  0  0  0  0  0  0  0  0
   -1.4289    0.0000    0.0000 O   0  0  0  0  0  0  0  0  0  0  0  0
   -1.4289    0.0000    0.0000 O   0  0  0  0  0  0  0  0  0  0  0  0
    0.0000    0.0000    0.0000 O   0  0  0  0  0  0  0  0  0  0  0  0
    1.4289    0.0000    0.0000 O   0  0  0  0  0  0  0  0  0  0  0  0
    1.4289    0.0000    0.0000 O   0  0  0  0  0  0  0  0  0  0  0  0
  1  2  1  0      
  2  3  1  0      
  3  4  1  0      
  4  5  1  0      
  5  6  1  0      
  6  7  1  0      
  7  8  1  0      
  3  8  1  0      
  8  9  1  0      
  7 10  1  0      
  6 11  1  0      
  5 12  1  0      
  4 13  1  0      
M  END
>  <Bioactivity>
D-pinitol exerts anti-inflammatory activity. D-Pinitol exerts insulin-like activity, used for many diabetic associated conditions.D-Pinitol is a safe nutrient to reduce calorie consumption when supp
lementing with creatine.

>  <CAS>
10284-63-6

>  <Col>
2

>  <Formula>
C7H14O6

>  <ID>
T3823

>  <Index>
831

>  <MOLENAME>
D-Pinitol

>  <MolWt>
194.183

>  <Pathways>
Others

>  <Plate>
PLATE 011

>  <QR code>
1151480564

>  <Receptor>
Others

>  <Reference>
1.Rengarajan T1, Nandakumar N, Rajendran P £¬et al.D-pinitol promotes apoptosis in MCF-7 cells via induction of p53 and Bax and inhibition of Bcl-2 and NF-¦ÊB.Asian Pac J Cancer Prev. 2014;15(4):1757-
62.

>  <Row>
D

>  <SMILES>
COC1C(C(C(C(C1O)O)O)O)O

>  <Target>
Others

>  <Weight>
10.1mg

$$$$
Lab-1.sdf
  ChemDraw05232018482D

 55 60  0  0  0  0  0  0  0  0999 V2000
    6.9197    0.0000    0.0000 C   0  0  0  0  0  0  0  0  0  0  0  0
    6.6088    0.0000    0.0000 C   0  0  0  0  0  0  0  0  0  0  0  0
    5.7915    0.0000    0.0000 C   0  0  0  0  0  0  0  0  0  0  0  0
    5.2852    0.0000    0.0000 C   0  0  0  0  0  0  0  0  0  0  0  0
    4.4679    0.0000    0.0000 C   0  0  0  0  0  0  0  0  0  0  0  0
    3.9615    0.0000    0.0000 C   0  0  0  0  0  0  0  0  0  0  0  0
    4.6129    0.0000    0.0000 C   0  0  0  0  0  0  0  0  0  0  0  0
    3.4551    0.0000    0.0000 C   0  0  0  0  0  0  0  0  0  0  0  0
    3.6844    0.0000    0.0000 C   0  0  0  0  0  0  0  0  0  0  0  0
    3.0016    0.0000    0.0000 C   0  0  0  0  0  0  0  0  0  0  0  0
    2.3502    0.0000    0.0000 C   0  0  0  0  0  0  0  0  0  0  0  0
    2.6305    0.0000    0.0000 C   0  0  0  0  0  0  0  0  0  0  0  0
    2.0987    0.0000    0.0000 C   0  0  0  0  0  0  0  0  0  0  0  0
    1.2866    0.0000    0.0000 C   0  0  0  0  0  0  0  0  0  0  0  0
    1.0063    0.0000    0.0000 C   0  0  0  0  0  0  0  0  0  0  0  0
    1.5381    0.0000    0.0000 C   0  0  0  0  0  0  0  0  0  0  0  0
    1.2578    0.0000    0.0000 C   0  0  0  0  0  0  0  0  0  0  0  0
    0.4457    0.0000    0.0000 C   0  0  0  0  0  0  0  0  0  0  0  0
   -0.0862    0.0000    0.0000 C   0  0  0  0  0  0  0  0  0  0  0  0
    0.1942    0.0000    0.0000 C   0  0  0  0  0  0  0  0  0  0  0  0
   -0.3377    0.0000    0.0000 C   0  0  0  0  0  0  0  0  0  0  0  0
   -1.1498    0.0000    0.0000 C   0  0  0  0  0  0  0  0  0  0  0  0
   -1.4301    0.0000    0.0000 C   0  0  0  0  0  0  0  0  0  0  0  0
   -0.8983    0.0000    0.0000 C   0  0  0  0  0  0  0  0  0  0  0  0
   -1.5101    0.0000    0.0000 C   0  0  0  0  0  0  0  0  0  0  0  0
   -0.7815    0.0000    0.0000 C   0  0  0  0  0  0  0  0  0  0  0  0
   -2.2423    0.0000    0.0000 O   0  0  0  0  0  0  0  0  0  0  0  0
   -2.7741    0.0000    0.0000 C   0  0  0  0  0  0  0  0  0  0  0  0
   -3.5862    0.0000    0.0000 C   0  0  0  0  0  0  0  0  0  0  0  0
   -4.1180    0.0000    0.0000 C   0  0  0  0  0  0  0  0  0  0  0  0
   -3.8377    0.0000    0.0000 C   0  0  0  0  0  0  0  0  0  0  0  0
   -3.0256    0.0000    0.0000 C   0  0  0  0  0  0  0  0  0  0  0  0
   -2.4938    0.0000    0.0000 O   0  0  0  0  0  0  0  0  0  0  0  0
   -2.7453    0.0000    0.0000 C   0  0  0  0  0  0  0  0  0  0  0  0
   -3.2771    0.0000    0.0000 O   0  0  0  0  0  0  0  0  0  0  0  0
   -4.3696    0.0000    0.0000 O   0  0  0  0  0  0  0  0  0  0  0  0
   -4.9302    0.0000    0.0000 O   0  0  0  0  0  0  0  0  0  0  0  0
   -3.8665    0.0000    0.0000 O   0  0  0  0  0  0  0  0  0  0  0  0
   -4.6787    0.0000    0.0000 C   0  0  0  0  0  0  0  0  0  0  0  0
   -4.9590    0.0000    0.0000 C   0  0  0  0  0  0  0  0  0  0  0  0
   -5.7711    0.0000    0.0000 C   0  0  0  0  0  0  0  0  0  0  0  0
   -6.3030    0.0000    0.0000 C   0  0  0  0  0  0  0  0  0  0  0  0
   -6.0227    0.0000    0.0000 C   0  0  0  0  0  0  0  0  0  0  0  0
   -5.2105    0.0000    0.0000 O   0  0  0  0  0  0  0  0  0  0  0  0
   -6.5545    0.0000    0.0000 C   0  0  0  0  0  0  0  0  0  0  0  0
   -6.2742    0.0000    0.0000 O   0  0  0  0  0  0  0  0  0  0  0  0
   -7.1151    0.0000    0.0000 O   0  0  0  0  0  0  0  0  0  0  0  0
   -6.0514    0.0000    0.0000 O   0  0  0  0  0  0  0  0  0  0  0  0
   -4.4272    0.0000    0.0000 O   0  0  0  0  0  0  0  0  0  0  0  0
    0.4745    0.0000    0.0000 C   0  0  0  0  0  0  0  0  0  0  0  0
    2.3790    0.0000    0.0000 O   0  0  0  0  0  0  0  0  0  0  0  0
    2.9904    0.0000    0.0000 C   0  0  0  0  0  0  0  0  0  0  0  0
    2.1526    0.0000    0.0000 C   0  0  0  0  0  0  0  0  0  0  0  0
    3.3101    0.0000    0.0000 O   0  0  0  0  0  0  0  0  0  0  0  0
    7.1151    0.0000    0.0000 C   0  0  0  0  0  0  0  0  0  0  0  0
  1  2  1  0      
  2  3  2  0      
  3  4  1  0      
  4  5  1  0      
  5  6  1  0      
  6  7  1  0      
  6  8  1  0      
  8  9  1  0      
  9 10  1  0      
 10 11  1  0      
 11 12  1  0      
  8 12  1  0      
 12 13  1  0      
 13 14  1  0      
 14 15  1  0      
 15 16  1  0      
 11 16  1  0      
 16 17  1  0      
 17 18  1  0      
 18 19  1  0      
 19 20  1  0      
 15 20  1  0      
 20 21  1  0      
 21 22  1  0      
 22 23  1  0      
 23 24  1  0      
 19 24  1  0      
 24 25  1  0      
 24 26  1  0      
 23 27  1  0      
 27 28  1  0      
 28 29  1  0      
 29 30  1  0      
 30 31  1  0      
 31 32  1  0      
 32 33  1  0      
 28 33  1  0      
 32 34  1  0      
 34 35  1  0      
 31 36  1  0      
 30 37  1  0      
 29 38  1  0      
 38 39  1  0      
 39 40  1  0      
 40 41  1  0      
 41 42  1  0      
 42 43  1  0      
 43 44  1  0      
 39 44  1  0      
 43 45  1  0      
 45 46  1  0      
 42 47  1  0      
 41 48  1  0      
 40 49  1  0      
 20 50  1  0      
 13 51  1  0      
 12 52  1  0      
 11 53  1  0      
  6 54  1  0      
  2 55  1  0      
M  END
>  <Bioactivity>
20(R)-Ginsenoside Rg3 has anti-aging and antifatigue activities.20(R)-Ginsenoside Rg3 can adjust cerebral nervous system, activating normal cell and sedation.20(R)-Ginsenoside Rg3 can prevent and tr
eat coronary heart disease, climacteric syndrome, diabetes, anemia ,cancer, etc.20(R)-Ginsenoside Rg3 can enhance immunity; protect hematopoietic function of marrow, enhance hematopoietic ability; pr
omote metabolism ; improving the ability of hepatic detoxifcation.

>  <CAS>
38243-03-7

>  <Col>
3

>  <Formula>
C42H72O13

>  <ID>
T3812

>  <Index>
832

>  <MOLENAME>
20(R)-Propanaxadiol

>  <MolWt>
785.02

>  <Pathways>
Others

>  <Plate>
PLATE 011

>  <QR code>
1151480565

>  <Receptor>
Others

>  <Reference>
1. Bae EA,et al. Metabolism of 20(S)- and 20(R)-ginsenoside Rg3 by human intestinal bacteria and its relation to in vitro biological activities. Biol Pharm Bull. 2002 Jan;25(1):58-63.

>  <Row>
D

>  <SMILES>
CC(=CCCC(C)(C1CCC2(C1(C(CC3C2CCC4C3(CCC(C4(C)C)OC5C(C(C(C(O5)CO)O)O)OC6C(C(C(C(O6)CO)O)O)O)C)O)C)C)O)C

>  <Target>
Others

>  <Weight>
10.3mg

$$$$
Lab-1.sdf
  ChemDraw05232018482D

 75 82  0  0  0  0  0  0  0  0999 V2000
    3.0053    0.0000    0.0000 C   0  0  0  0  0  0  0  0  0  0  0  0
    2.3539    0.0000    0.0000 C   0  0  0  0  0  0  0  0  0  0  0  0
    2.4668    0.0000    0.0000 C   0  0  0  0  0  0  0  0  0  0  0  0
    1.8153    0.0000    0.0000 C   0  0  0  0  0  0  0  0  0  0  0  0
    1.9282    0.0000    0.0000 C   0  0  0  0  0  0  0  0  0  0  0  0
    1.2769    0.0000    0.0000 C   0  0  0  0  0  0  0  0  0  0  0  0
    0.6255    0.0000    0.0000 C   0  0  0  0  0  0  0  0  0  0  0  0
    0.7705    0.0000    0.0000 C   0  0  0  0  0  0  0  0  0  0  0  0
    0.9998    0.0000    0.0000 C   0  0  0  0  0  0  0  0  0  0  0  0
    0.3170    0.0000    0.0000 C   0  0  0  0  0  0  0  0  0  0  0  0
   -0.3344    0.0000    0.0000 C   0  0  0  0  0  0  0  0  0  0  0  0
   -0.0541    0.0000    0.0000 C   0  0  0  0  0  0  0  0  0  0  0  0
   -0.5859    0.0000    0.0000 C   0  0  0  0  0  0  0  0  0  0  0  0
   -1.3980    0.0000    0.0000 C   0  0  0  0  0  0  0  0  0  0  0  0
   -1.6783    0.0000    0.0000 C   0  0  0  0  0  0  0  0  0  0  0  0
   -1.1465    0.0000    0.0000 C   0  0  0  0  0  0  0  0  0  0  0  0
   -1.4268    0.0000    0.0000 C   0  0  0  0  0  0  0  0  0  0  0  0
   -2.2390    0.0000    0.0000 C   0  0  0  0  0  0  0  0  0  0  0  0
   -2.7708    0.0000    0.0000 C   0  0  0  0  0  0  0  0  0  0  0  0
   -2.4905    0.0000    0.0000 C   0  0  0  0  0  0  0  0  0  0  0  0
   -3.0223    0.0000    0.0000 C   0  0  0  0  0  0  0  0  0  0  0  0
   -3.8344    0.0000    0.0000 C   0  0  0  0  0  0  0  0  0  0  0  0
   -4.1147    0.0000    0.0000 C   0  0  0  0  0  0  0  0  0  0  0  0
   -3.5829    0.0000    0.0000 C   0  0  0  0  0  0  0  0  0  0  0  0
   -4.1947    0.0000    0.0000 C   0  0  0  0  0  0  0  0  0  0  0  0
   -3.4661    0.0000    0.0000 C   0  0  0  0  0  0  0  0  0  0  0  0
   -4.9269    0.0000    0.0000 O   0  0  0  0  0  0  0  0  0  0  0  0
   -5.4587    0.0000    0.0000 C   0  0  0  0  0  0  0  0  0  0  0  0
   -5.1784    0.0000    0.0000 C   0  0  0  0  0  0  0  0  0  0  0  0
   -5.7102    0.0000    0.0000 C   0  0  0  0  0  0  0  0  0  0  0  0
   -6.5224    0.0000    0.0000 C   0  0  0  0  0  0  0  0  0  0  0  0
   -6.8027    0.0000    0.0000 C   0  0  0  0  0  0  0  0  0  0  0  0
   -6.2708    0.0000    0.0000 O   0  0  0  0  0  0  0  0  0  0  0  0
   -7.6148    0.0000    0.0000 C   0  0  0  0  0  0  0  0  0  0  0  0
   -7.8951    0.0000    0.0000 O   0  0  0  0  0  0  0  0  0  0  0  0
   -7.0542    0.0000    0.0000 O   0  0  0  0  0  0  0  0  0  0  0  0
   -5.4299    0.0000    0.0000 O   0  0  0  0  0  0  0  0  0  0  0  0
   -4.3663    0.0000    0.0000 O   0  0  0  0  0  0  0  0  0  0  0  0
   -4.0860    0.0000    0.0000 C   0  0  0  0  0  0  0  0  0  0  0  0
   -3.2738    0.0000    0.0000 C   0  0  0  0  0  0  0  0  0  0  0  0
   -2.9936    0.0000    0.0000 C   0  0  0  0  0  0  0  0  0  0  0  0
   -3.5254    0.0000    0.0000 C   0  0  0  0  0  0  0  0  0  0  0  0
   -4.3375    0.0000    0.0000 C   0  0  0  0  0  0  0  0  0  0  0  0
   -4.6178    0.0000    0.0000 O   0  0  0  0  0  0  0  0  0  0  0  0
   -4.8693    0.0000    0.0000 C   0  0  0  0  0  0  0  0  0  0  0  0
   -4.5890    0.0000    0.0000 O   0  0  0  0  0  0  0  0  0  0  0  0
   -3.2451    0.0000    0.0000 O   0  0  0  0  0  0  0  0  0  0  0  0
   -2.1814    0.0000    0.0000 O   0  0  0  0  0  0  0  0  0  0  0  0
   -2.7420    0.0000    0.0000 O   0  0  0  0  0  0  0  0  0  0  0  0
   -2.2102    0.0000    0.0000 C   0  0  0  0  0  0  0  0  0  0  0  0
   -0.6147    0.0000    0.0000 C   0  0  0  0  0  0  0  0  0  0  0  0
   -0.3056    0.0000    0.0000 O   0  0  0  0  0  0  0  0  0  0  0  0
   -0.2748    0.0000    0.0000 C   0  0  0  0  0  0  0  0  0  0  0  0
    1.7832    0.0000    0.0000 O   0  0  0  0  0  0  0  0  0  0  0  0
    2.6006    0.0000    0.0000 C   0  0  0  0  0  0  0  0  0  0  0  0
    2.9115    0.0000    0.0000 C   0  0  0  0  0  0  0  0  0  0  0  0
    3.7287    0.0000    0.0000 C   0  0  0  0  0  0  0  0  0  0  0  0
    4.2351    0.0000    0.0000 C   0  0  0  0  0  0  0  0  0  0  0  0
    3.9242    0.0000    0.0000 C   0  0  0  0  0  0  0  0  0  0  0  0
    3.1069    0.0000    0.0000 O   0  0  0  0  0  0  0  0  0  0  0  0
    4.4305    0.0000    0.0000 C   0  0  0  0  0  0  0  0  0  0  0  0
    5.2478    0.0000    0.0000 O   0  0  0  0  0  0  0  0  0  0  0  0
    5.7541    0.0000    0.0000 C   0  0  0  0  0  0  0  0  0  0  0  0
    6.5715    0.0000    0.0000 C   0  0  0  0  0  0  0  0  0  0  0  0
    7.0778    0.0000    0.0000 C   0  0  0  0  0  0  0  0  0  0  0  0
    6.7669    0.0000    0.0000 C   0  0  0  0  0  0  0  0  0  0  0  0
    5.9496    0.0000    0.0000 C   0  0  0  0  0  0  0  0  0  0  0  0
    5.4432    0.0000    0.0000 O   0  0  0  0  0  0  0  0  0  0  0  0
    7.2733    0.0000    0.0000 O   0  0  0  0  0  0  0  0  0  0  0  0
    7.8951    0.0000    0.0000 O   0  0  0  0  0  0  0  0  0  0  0  0
    6.8824    0.0000    0.0000 O   0  0  0  0  0  0  0  0  0  0  0  0
    5.0523    0.0000    0.0000 O   0  0  0  0  0  0  0  0  0  0  0  0
    4.0396    0.0000    0.0000 O   0  0  0  0  0  0  0  0  0  0  0  0
    2.4051    0.0000    0.0000 O   0  0  0  0  0  0  0  0  0  0  0  0
    1.5896    0.0000    0.0000 C   0  0  0  0  0  0  0  0  0  0  0  0
  1  2  1  0      
  2  3  2  0      
  3  4  1  0      
  4  5  1  0      
  5  6  1  0      
  6  7  1  0      
  6  8  1  0      
  8  9  1  0      
  9 10  1  0      
 10 11  1  0      
 11 12  1  0      
  8 12  1  0      
 12 13  1  0      
 13 14  1  0      
 14 15  1  0      
 15 16  1  0      
 11 16  1  0      
 16 17  1  0      
 17 18  1  0      
 18 19  1  0      
 19 20  1  0      
 15 20  1  0      
 20 21  1  0      
 21 22  1  0      
 22 23  1  0      
 23 24  1  0      
 19 24  1  0      
 24 25  1  0      
 24 26  1  0      
 23 27  1  0      
 27 28  1  0      
 28 29  1  0      
 29 30  1  0      
 30 31  1  0      
 31 32  1  0      
 32 33  1  0      
 28 33  1  0      
 32 34  1  0      
 34 35  1  0      
 31 36  1  0      
 30 37  1  0      
 29 38  1  0      
 38 39  1  0      
 39 40  1  0      
 40 41  1  0      
 41 42  1  0      
 42 43  1  0      
 43 44  1  0      
 39 44  1  0      
 43 45  1  0      
 45 46  1  0      
 42 47  1  0      
 41 48  1  0      
 40 49  1  0      
 20 50  1  0      
 16 51  1  0      
 13 52  1  0      
 11 53  1  0      
  6 54  1  0      
 54 55  1  0      
 55 56  1  0      
 56 57  1  0      
 57 58  1  0      
 58 59  1  0      
 59 60  1  0      
 55 60  1  0      
 59 61  1  0      
 61 62  1  0      
 62 63  1  0      
 63 64  1  0      
 64 65  1  0      
 65 66  1  0      
 66 67  1  0      
 67 68  1  0      
 63 68  1  0      
 66 69  1  0      
 65 70  1  0      
 64 71  1  0      
 58 72  1  0      
 57 73  1  0      
 56 74  1  0      
  2 75  1  0      
M  END
>  <Bioactivity>
Ginsenoside Rb2 shows potent antioxidant and anticancer biological activities which inhibited lung tumor metastasis by inhibiting the tumor-associated angiogenesis and inhibited invasiveness to the ba
sement membrane of endometrial cancer cell lines Ishikawa.

>  <CAS>
11021-13-9

>  <Col>
4

>  <Formula>
C53H90O22 

>  <ID>
T3919

>  <Index>
833

>  <MOLENAME>
 Ginsenoside Rb2

>  <MolWt>
1079.27

>  <Pathways>
NF-¦ÊB

>  <Plate>
PLATE 011

>  <QR code>
1151480566

>  <Receptor>
Others

>  <Reference>
1. Huang Q, et al. Ginsenoside-Rb2 displays anti-osteoporosis effects through reducing oxidative damage and bone-resorbing cytokines during osteogenesis. Bone. 2014 Sep;66:306-14.

>  <Row>
D

>  <SMILES>
CC(=CCCC(C)(C1CCC2(C1C(CC3C2(CCC4C3(CCC(C4(C)C)OC5C(C(C(C(O5)CO)O)O)OC6C(C(C(C(O6)CO)O)O)O)C)C)O)C)OC7C(C(C(C(O7)COC8C(C(C(CO8)O)O)O)O)O)O)C

>  <Target>
NF-¦ÊB

>  <Weight>
10.2mg

$$$$
Lab-1.sdf
  ChemDraw05232018482D

 40 44  0  0  0  0  0  0  0  0999 V2000
   -1.0717    0.0000    0.0000 C   0  0  0  0  0  0  0  0  0  0  0  0
   -0.3573    0.0000    0.0000 C   0  0  0  0  0  0  0  0  0  0  0  0
    0.3573    0.0000    0.0000 C   0  0  0  0  0  0  0  0  0  0  0  0
    0.3573    0.0000    0.0000 C   0  0  0  0  0  0  0  0  0  0  0  0
   -0.3573    0.0000    0.0000 C   0  0  0  0  0  0  0  0  0  0  0  0
   -1.0717    0.0000    0.0000 O   0  0  0  0  0  0  0  0  0  0  0  0
   -0.3573    0.0000    0.0000 C   0  0  0  0  0  0  0  0  0  0  0  0
   -1.0717    0.0000    0.0000 C   0  0  0  0  0  0  0  0  0  0  0  0
   -1.0717    0.0000    0.0000 C   0  0  0  0  0  0  0  0  0  0  0  0
   -0.3573    0.0000    0.0000 C   0  0  0  0  0  0  0  0  0  0  0  0
    0.3573    0.0000    0.0000 C   0  0  0  0  0  0  0  0  0  0  0  0
    0.3573    0.0000    0.0000 C   0  0  0  0  0  0  0  0  0  0  0  0
    1.0716    0.0000    0.0000 O   0  0  0  0  0  0  0  0  0  0  0  0
    1.7861    0.0000    0.0000 C   0  0  0  0  0  0  0  0  0  0  0  0
    1.7861    0.0000    0.0000 C   0  0  0  0  0  0  0  0  0  0  0  0
    1.0716    0.0000    0.0000 C   0  0  0  0  0  0  0  0  0  0  0  0
    1.0716    0.0000    0.0000 O   0  0  0  0  0  0  0  0  0  0  0  0
    2.5006    0.0000    0.0000 C   0  0  0  0  0  0  0  0  0  0  0  0
    2.5006    0.0000    0.0000 C   0  0  0  0  0  0  0  0  0  0  0  0
    3.2151    0.0000    0.0000 C   0  0  0  0  0  0  0  0  0  0  0  0
    3.9295    0.0000    0.0000 C   0  0  0  0  0  0  0  0  0  0  0  0
    3.9295    0.0000    0.0000 C   0  0  0  0  0  0  0  0  0  0  0  0
    3.2151    0.0000    0.0000 C   0  0  0  0  0  0  0  0  0  0  0  0
    4.6440    0.0000    0.0000 O   0  0  0  0  0  0  0  0  0  0  0  0
   -0.3573    0.0000    0.0000 O   0  0  0  0  0  0  0  0  0  0  0  0
   -1.7861    0.0000    0.0000 C   0  0  0  0  0  0  0  0  0  0  0  0
   -1.7861    0.0000    0.0000 C   0  0  0  0  0  0  0  0  0  0  0  0
   -2.5006    0.0000    0.0000 C   0  0  0  0  0  0  0  0  0  0  0  0
   -3.2151    0.0000    0.0000 C   0  0  0  0  0  0  0  0  0  0  0  0
   -3.2151    0.0000    0.0000 C   0  0  0  0  0  0  0  0  0  0  0  0
   -2.5006    0.0000    0.0000 O   0  0  0  0  0  0  0  0  0  0  0  0
   -3.9296    0.0000    0.0000 C   0  0  0  0  0  0  0  0  0  0  0  0
   -4.6440    0.0000    0.0000 O   0  0  0  0  0  0  0  0  0  0  0  0
   -3.9296    0.0000    0.0000 O   0  0  0  0  0  0  0  0  0  0  0  0
   -2.5006    0.0000    0.0000 O   0  0  0  0  0  0  0  0  0  0  0  0
   -1.0717    0.0000    0.0000 O   0  0  0  0  0  0  0  0  0  0  0  0
   -1.7861    0.0000    0.0000 O   0  0  0  0  0  0  0  0  0  0  0  0
    1.0716    0.0000    0.0000 O   0  0  0  0  0  0  0  0  0  0  0  0
    1.0716    0.0000    0.0000 O   0  0  0  0  0  0  0  0  0  0  0  0
   -0.3573    0.0000    0.0000 O   0  0  0  0  0  0  0  0  0  0  0  0
  1  2  1  0      
  2  3  1  0      
  3  4  1  0      
  4  5  1  0      
  5  6  1  0      
  1  6  1  0      
  5  7  1  0      
  7  8  2  0      
  8  9  1  0      
  9 10  2  0      
 10 11  1  0      
 11 12  2  0      
  7 12  1  0      
 12 13  1  0      
 13 14  1  0      
 14 15  2  0      
 15 16  1  0      
 11 16  1  0      
 16 17  2  0      
 14 18  1  0      
 18 19  2  0      
 19 20  1  0      
 20 21  2  0      
 21 22  1  0      
 22 23  2  0      
 18 23  1  0      
 21 24  1  0      
 10 25  1  0      
  9 26  1  0      
 26 27  1  0      
 27 28  1  0      
 28 29  1  0      
 29 30  1  0      
 30 31  1  0      
 26 31  1  0      
 30 32  1  0      
 32 33  1  0      
 29 34  1  0      
 28 35  1  0      
 27 36  1  0      
  8 37  1  0      
  4 38  1  0      
  3 39  1  0      
  2 40  1  0      
M  END
>  <Bioactivity>
Schaftoside has anticancer activity and antioxidant activity.

>  <CAS>
51938-32-0

>  <Col>
5

>  <Formula>
C26H28O14

>  <ID>
T3898

>  <Index>
834

>  <MOLENAME>
APIGENIN-6-GLUCOSIDE-8-ARABINOSIDE

>  <MolWt>
564.496

>  <Pathways>
Others

>  <Plate>
PLATE 011

>  <QR code>
1151480567

>  <Receptor>
Others

>  <Reference>
1. Sun D,et al. Simultaneous determination of four flavonoids and one phenolic acid in rat plasma by LC-MS/MS and its application to a pharmacokinetic study after oral administration of the Herba Desm
odii Styracifolii extract. J Chromatogr B Analyt Technol Biomed Life Sci. 2013 Aug 1;932:66-73.

>  <Row>
D

>  <SMILES>
C1C(C(C(C(O1)C2=C(C(=C(C3=C2OC(=CC3=O)C4=CC=C(C=C4)O)O)C5C(C(C(C(O5)CO)O)O)O)O)O)O)O

>  <Target>
Others

>  <Weight>
10.1mg

$$$$
Lab-1.sdf
  ChemDraw05232018482D

 32 36  0  0  0  0  0  0  0  0999 V2000
   -1.5890    0.0000    0.0000 C   0  0  0  0  0  0  0  0  0  0  0  0
   -2.3774    0.0000    0.0000 C   0  0  0  0  0  0  0  0  0  0  0  0
   -2.9820    0.0000    0.0000 C   0  0  0  0  0  0  0  0  0  0  0  0
   -2.5611    0.0000    0.0000 C   0  0  0  0  0  0  0  0  0  0  0  0
   -3.3198    0.0000    0.0000 C   0  0  0  0  0  0  0  0  0  0  0  0
   -3.2461    0.0000    0.0000 C   0  0  0  0  0  0  0  0  0  0  0  0
   -2.4418    0.0000    0.0000 C   0  0  0  0  0  0  0  0  0  0  0  0
   -2.0185    0.0000    0.0000 C   0  0  0  0  0  0  0  0  0  0  0  0
   -1.1936    0.0000    0.0000 C   0  0  0  0  0  0  0  0  0  0  0  0
   -0.7703    0.0000    0.0000 C   0  0  0  0  0  0  0  0  0  0  0  0
    0.0546    0.0000    0.0000 C   0  0  0  0  0  0  0  0  0  0  0  0
    0.4563    0.0000    0.0000 C   0  0  0  0  0  0  0  0  0  0  0  0
    1.2812    0.0000    0.0000 C   0  0  0  0  0  0  0  0  0  0  0  0
    1.7045    0.0000    0.0000 C   0  0  0  0  0  0  0  0  0  0  0  0
    2.5294    0.0000    0.0000 C   0  0  0  0  0  0  0  0  0  0  0  0
    2.9310    0.0000    0.0000 C   0  0  0  0  0  0  0  0  0  0  0  0
    2.5077    0.0000    0.0000 C   0  0  0  0  0  0  0  0  0  0  0  0
    1.6828    0.0000    0.0000 C   0  0  0  0  0  0  0  0  0  0  0  0
    1.2595    0.0000    0.0000 C   0  0  0  0  0  0  0  0  0  0  0  0
    0.4346    0.0000    0.0000 C   0  0  0  0  0  0  0  0  0  0  0  0
    0.0329    0.0000    0.0000 C   0  0  0  0  0  0  0  0  0  0  0  0
   -0.7920    0.0000    0.0000 C   0  0  0  0  0  0  0  0  0  0  0  0
   -1.2153    0.0000    0.0000 C   0  0  0  0  0  0  0  0  0  0  0  0
   -2.0402    0.0000    0.0000 C   0  0  0  0  0  0  0  0  0  0  0  0
   -0.3904    0.0000    0.0000 C   0  0  0  0  0  0  0  0  0  0  0  0
    0.1066    0.0000    0.0000 C   0  0  0  0  0  0  0  0  0  0  0  0
    3.2006    0.0000    0.0000 C   0  0  0  0  0  0  0  0  0  0  0  0
    2.5240    0.0000    0.0000 C   0  0  0  0  0  0  0  0  0  0  0  0
    3.7559    0.0000    0.0000 O   0  0  0  0  0  0  0  0  0  0  0  0
    0.8796    0.0000    0.0000 C   0  0  0  0  0  0  0  0  0  0  0  0
   -2.9368    0.0000    0.0000 C   0  0  0  0  0  0  0  0  0  0  0  0
   -3.7559    0.0000    0.0000 O   0  0  0  0  0  0  0  0  0  0  0  0
  1  2  1  0      
  2  3  2  0      
  2  4  1  0      
  4  5  1  0      
  5  6  1  0      
  6  7  1  0      
  7  8  1  0      
  4  8  1  0      
  8  9  1  0      
  9 10  1  0      
 10 11  1  0      
 11 12  1  0      
 12 13  1  0      
 13 14  1  0      
 14 15  1  0      
 15 16  1  0      
 16 17  1  0      
 17 18  1  0      
 13 18  1  0      
 18 19  1  0      
 19 20  1  0      
 20 21  1  0      
 12 21  1  0      
 21 22  1  0      
  9 22  1  0      
 22 23  1  0      
 23 24  1  0      
  7 24  1  0      
 22 25  1  0      
 21 26  1  0      
 17 27  1  0      
 17 28  1  0      
 16 29  1  0      
 13 30  1  0      
  7 31  1  0      
 31 32  2  0      
M  END
>  <Bioactivity>
Betulinaldehyde has anti-proliferative activity against mouse +SA mammary epithelial cells.Betulinaldehyde has the inhibition of Saccharomyces sp and alpha-glucosidase.Betulinaldehyde induces apopto
sis in mouse B16 2F2 cells.

>  <CAS>
13159-28-9

>  <Col>
6

>  <Formula>
C30H48O2

>  <ID>
T3796

>  <Index>
835

>  <MOLENAME>
Betulinaldehyde

>  <MolWt>
440.7

>  <Pathways>
Apoptosis

>  <Plate>
PLATE 011

>  <QR code>
1151480568

>  <Receptor>
Apoptosis inducer

>  <Reference>
1. Wang Z,et al. Corilagin attenuates aerosol bleomycin-induced experimental lung injury. Int J Mol Sci. 2014 May 30;15(6):9762-79. 

>  <Row>
D

>  <SMILES>
CC(=C)C1CCC2(C1C3CCC4C5(CCC(C(C5CCC4(C3(CC2)C)C)(C)C)O)C)C=O

>  <Target>
Apoptosis inducer

>  <Weight>
10.3mg

$$$$
Lab-1.sdf
  ChemDraw05232018482D

 23 24  0  0  0  0  0  0  0  0999 V2000
   -1.0717    0.0000    0.0000 C   0  0  0  0  0  0  0  0  0  0  0  0
   -0.3573    0.0000    0.0000 O   0  0  0  0  0  0  0  0  0  0  0  0
   -0.3573    0.0000    0.0000 C   0  0  0  0  0  0  0  0  0  0  0  0
    0.3572    0.0000    0.0000 C   0  0  0  0  0  0  0  0  0  0  0  0
    0.3572    0.0000    0.0000 C   0  0  0  0  0  0  0  0  0  0  0  0
   -0.3573    0.0000    0.0000 C   0  0  0  0  0  0  0  0  0  0  0  0
   -1.0717    0.0000    0.0000 C   0  0  0  0  0  0  0  0  0  0  0  0
   -1.0717    0.0000    0.0000 C   0  0  0  0  0  0  0  0  0  0  0  0
   -0.3573    0.0000    0.0000 C   0  0  0  0  0  0  0  0  0  0  0  0
    0.3572    0.0000    0.0000 C   0  0  0  0  0  0  0  0  0  0  0  0
    0.3572    0.0000    0.0000 C   0  0  0  0  0  0  0  0  0  0  0  0
    1.0717    0.0000    0.0000 C   0  0  0  0  0  0  0  0  0  0  0  0
    1.0717    0.0000    0.0000 C   0  0  0  0  0  0  0  0  0  0  0  0
    0.3572    0.0000    0.0000 C   0  0  0  0  0  0  0  0  0  0  0  0
   -0.3573    0.0000    0.0000 C   0  0  0  0  0  0  0  0  0  0  0  0
   -0.3573    0.0000    0.0000 C   0  0  0  0  0  0  0  0  0  0  0  0
   -1.0717    0.0000    0.0000 O   0  0  0  0  0  0  0  0  0  0  0  0
   -1.7862    0.0000    0.0000 C   0  0  0  0  0  0  0  0  0  0  0  0
    0.3572    0.0000    0.0000 O   0  0  0  0  0  0  0  0  0  0  0  0
    1.0717    0.0000    0.0000 C   0  0  0  0  0  0  0  0  0  0  0  0
    1.7862    0.0000    0.0000 O   0  0  0  0  0  0  0  0  0  0  0  0
    1.7862    0.0000    0.0000 C   0  0  0  0  0  0  0  0  0  0  0  0
    1.0717    0.0000    0.0000 O   0  0  0  0  0  0  0  0  0  0  0  0
  1  2  1  0      
  2  3  1  0      
  3  4  2  0      
  4  5  1  0      
  5  6  2  0      
  6  7  1  0      
  7  8  2  0      
  3  8  1  0      
  6  9  1  0      
  9 10  1  0      
 10 11  1  0      
 11 12  2  0      
 12 13  1  0      
 13 14  2  0      
 14 15  1  0      
 15 16  2  0      
 11 16  1  0      
 15 17  1  0      
 17 18  1  0      
 14 19  1  0      
 19 20  1  0      
 13 21  1  0      
 21 22  1  0      
  4 23  1  0      
M  END
>  <Bioactivity>
Erianin is a nature product extracted from Dendrobium chrysotoxum, has notable antitumour activity , can cause extensive tumour necrosis, growth delay .Erianin has antiangiogenic action by inhibiting
 endothelial metabolism in a JNK/SAPK-dependent manner and inducing endothelial cytoskeletal disorganisation.Erianin shows potent inhibitory activity on the proliferation of HL-60 cells, the inhibiti
on might be relative to the apoptosis induced by Erianin and the altered expression of bcl-2 and bax genes in HL-60 cells.

>  <CAS>
95041-90-0

>  <Col>
7

>  <Formula>
C18H22O5

>  <ID>
T3864

>  <Index>
836

>  <MOLENAME>
Erianin

>  <MolWt>
318.369

>  <Pathways>
Apoptosis

>  <Plate>
PLATE 011

>  <QR code>
1151480569

>  <Receptor>
Bcl-2

>  <Reference>
1. Lam F,et al. ZJU-6, a novel derivative of Erianin, shows potent anti-tubulin polymerisation and anti-angiogenic activities. 

>  <Row>
D

>  <SMILES>
COC1=C(C=C(C=C1)CCC2=CC(=C(C(=C2)OC)OC)OC)O

>  <Target>
Bcl-2 inhibitor

>  <Weight>
10.1mg

$$$$
Lab-1.sdf
  ChemDraw05232018482D

 12 11  0  0  0  0  0  0  0  0999 V2000
   -1.7862    0.0000    0.0000 C   0  0  0  0  0  0  0  0  0  0  0  0
   -1.0718    0.0000    0.0000 C   0  0  0  0  0  0  0  0  0  0  0  0
   -0.3573    0.0000    0.0000 C   0  0  0  0  0  0  0  0  0  0  0  0
    0.3571    0.0000    0.0000 C   0  0  0  0  0  0  0  0  0  0  0  0
    1.0716    0.0000    0.0000 C   0  0  0  0  0  0  0  0  0  0  0  0
    1.7861    0.0000    0.0000 C   0  0  0  0  0  0  0  0  0  0  0  0
    2.5006    0.0000    0.0000 O   0  0  0  0  0  0  0  0  0  0  0  0
    1.0716    0.0000    0.0000 O   0  0  0  0  0  0  0  0  0  0  0  0
    0.3571    0.0000    0.0000 O   0  0  0  0  0  0  0  0  0  0  0  0
   -0.3573    0.0000    0.0000 O   0  0  0  0  0  0  0  0  0  0  0  0
   -1.0718    0.0000    0.0000 O   0  0  0  0  0  0  0  0  0  0  0  0
   -2.5006    0.0000    0.0000 O   0  0  0  0  0  0  0  0  0  0  0  0
  1  2  1  0      
  2  3  1  0      
  3  4  1  0      
  4  5  1  0      
  5  6  1  0      
  6  7  1  0      
  5  8  1  0      
  4  9  1  0      
  3 10  1  0      
  2 11  1  0      
  1 12  1  0      
M  END
>  <Bioactivity>
Allitol is useful as a sweetener and the raw material for production of chemical compounds. Allitol can be useful as a substrate for the production of L-form ketoses and aldoses.  Allitol may be an i
mportant intermediate for the preparation of some medicines against diabetes, cancer, and viral infections, including AIDS.

>  <CAS>
488-44-8

>  <Col>
8

>  <Formula>
C6H14O6

>  <ID>
T3756

>  <Index>
837

>  <MOLENAME>
Allitol

>  <MolWt>
182.17176

>  <Pathways>
Metabolism

>  <Plate>
PLATE 011

>  <QR code>
1151480570

>  <Receptor>
Others

>  <Reference>
1.Zhu Y,et al.Construction of allitol synthesis pathway by multi-enzyme coexpression in Escherichia coli and its application in allitol production.    2015 May;42(5):661-9. 

>  <Row>
D

>  <SMILES>
C(C(C(C(C(CO)O)O)O)O)O

>  <Target>
Others

>  <Weight>
10.1mg

$$$$
Lab-1.sdf
  ChemDraw05232018482D

 44 48  0  0  0  0  0  0  0  0999 V2000
   -2.8579    0.0000    0.0000 C   0  0  0  0  0  0  0  0  0  0  0  0
   -2.8579    0.0000    0.0000 C   0  0  0  0  0  0  0  0  0  0  0  0
   -3.5724    0.0000    0.0000 C   0  0  0  0  0  0  0  0  0  0  0  0
   -3.5724    0.0000    0.0000 C   0  0  0  0  0  0  0  0  0  0  0  0
   -2.8579    0.0000    0.0000 C   0  0  0  0  0  0  0  0  0  0  0  0
   -2.1434    0.0000    0.0000 C   0  0  0  0  0  0  0  0  0  0  0  0
   -2.1434    0.0000    0.0000 O   0  0  0  0  0  0  0  0  0  0  0  0
   -1.4289    0.0000    0.0000 O   0  0  0  0  0  0  0  0  0  0  0  0
   -0.7145    0.0000    0.0000 C   0  0  0  0  0  0  0  0  0  0  0  0
   -0.7145    0.0000    0.0000 C   0  0  0  0  0  0  0  0  0  0  0  0
   -0.0000    0.0000    0.0000 C   0  0  0  0  0  0  0  0  0  0  0  0
    0.7145    0.0000    0.0000 C   0  0  0  0  0  0  0  0  0  0  0  0
    0.7145    0.0000    0.0000 O   0  0  0  0  0  0  0  0  0  0  0  0
   -0.0000    0.0000    0.0000 C   0  0  0  0  0  0  0  0  0  0  0  0
   -0.0000    0.0000    0.0000 O   0  0  0  0  0  0  0  0  0  0  0  0
    0.7145    0.0000    0.0000 C   0  0  0  0  0  0  0  0  0  0  0  0
    0.7145    0.0000    0.0000 C   0  0  0  0  0  0  0  0  0  0  0  0
    1.4289    0.0000    0.0000 O   0  0  0  0  0  0  0  0  0  0  0  0
    2.1434    0.0000    0.0000 C   0  0  0  0  0  0  0  0  0  0  0  0
    2.8579    0.0000    0.0000 C   0  0  0  0  0  0  0  0  0  0  0  0
    3.5724    0.0000    0.0000 C   0  0  0  0  0  0  0  0  0  0  0  0
    3.5724    0.0000    0.0000 C   0  0  0  0  0  0  0  0  0  0  0  0
    2.8579    0.0000    0.0000 C   0  0  0  0  0  0  0  0  0  0  0  0
    2.1434    0.0000    0.0000 C   0  0  0  0  0  0  0  0  0  0  0  0
    1.4289    0.0000    0.0000 C   0  0  0  0  0  0  0  0  0  0  0  0
    1.4289    0.0000    0.0000 O   0  0  0  0  0  0  0  0  0  0  0  0
    2.8579    0.0000    0.0000 O   0  0  0  0  0  0  0  0  0  0  0  0
    4.2868    0.0000    0.0000 O   0  0  0  0  0  0  0  0  0  0  0  0
   -0.0000    0.0000    0.0000 C   0  0  0  0  0  0  0  0  0  0  0  0
   -0.7145    0.0000    0.0000 C   0  0  0  0  0  0  0  0  0  0  0  0
   -1.4289    0.0000    0.0000 C   0  0  0  0  0  0  0  0  0  0  0  0
   -1.4289    0.0000    0.0000 C   0  0  0  0  0  0  0  0  0  0  0  0
   -0.7145    0.0000    0.0000 C   0  0  0  0  0  0  0  0  0  0  0  0
   -0.0000    0.0000    0.0000 C   0  0  0  0  0  0  0  0  0  0  0  0
   -2.1434    0.0000    0.0000 O   0  0  0  0  0  0  0  0  0  0  0  0
   -2.1434    0.0000    0.0000 O   0  0  0  0  0  0  0  0  0  0  0  0
   -2.1434    0.0000    0.0000 C   0  0  0  0  0  0  0  0  0  0  0  0
    1.4289    0.0000    0.0000 C   0  0  0  0  0  0  0  0  0  0  0  0
    2.1434    0.0000    0.0000 O   0  0  0  0  0  0  0  0  0  0  0  0
   -0.0000    0.0000    0.0000 O   0  0  0  0  0  0  0  0  0  0  0  0
   -1.4289    0.0000    0.0000 O   0  0  0  0  0  0  0  0  0  0  0  0
   -2.8579    0.0000    0.0000 O   0  0  0  0  0  0  0  0  0  0  0  0
   -4.2868    0.0000    0.0000 O   0  0  0  0  0  0  0  0  0  0  0  0
   -4.2868    0.0000    0.0000 O   0  0  0  0  0  0  0  0  0  0  0  0
  1  2  1  0      
  2  3  1  0      
  3  4  1  0      
  4  5  1  0      
  5  6  1  0      
  6  7  1  0      
  2  7  1  0      
  6  8  1  0      
  8  9  1  0      
  9 10  1  0      
 10 11  1  0      
 11 12  1  0      
 12 13  1  0      
 13 14  1  0      
  9 14  1  0      
 14 15  1  0      
 15 16  1  0      
 16 17  2  0      
 17 18  1  0      
 18 19  1  0      
 19 20  2  0      
 20 21  1  0      
 21 22  2  0      
 22 23  1  0      
 23 24  2  0      
 19 24  1  0      
 24 25  1  0      
 16 25  1  0      
 25 26  2  0      
 23 27  1  0      
 21 28  1  0      
 17 29  1  0      
 29 30  2  0      
 30 31  1  0      
 31 32  2  0      
 32 33  1  0      
 33 34  2  0      
 29 34  1  0      
 32 35  1  0      
 31 36  1  0      
 36 37  1  0      
 12 38  1  0      
 38 39  1  0      
 11 40  1  0      
 10 41  1  0      
  5 42  1  0      
  4 43  1  0      
  3 44  1  0      
M  END
>  <Bioactivity>
Isorhamnetin 3-O-neohesperidine is a flavonol glycoside extract used as an anti-oxidant.

>  <CAS>
55033-90-4

>  <Col>
9

>  <Formula>
C28H32O16

>  <ID>
T3799

>  <Index>
838

>  <MOLENAME>
ISORHAMNETIN 3-O-NEOHESPEROSIDE

>  <MolWt>
624.54

>  <Pathways>
Others

>  <Plate>
PLATE 011

>  <QR code>
1151480571

>  <Receptor>
Others

>  <Reference>
1. Li CY,et al. Measurement of hydroxysafflor yellow A in human urine by liquid chromatography-tandem mass spectrometry.J Chromatogr B Analyt Technol Biomed Life Sci. 

>  <Row>
D

>  <SMILES>
CC1C(C(C(C(O1)OC2C(C(C(OC2OC3=C(OC4=CC(=CC(=C4C3=O)O)O)C5=CC(=C(C=C5)O)OC)CO)O)O)O)O)O

>  <Target>
Others

>  <Weight>
10.4mg

$$$$
Lab-1.sdf
  ChemDraw05232018482D

 25 25  0  0  0  0  0  0  0  0999 V2000
   -6.4301    0.0000    0.0000 C   0  0  0  0  0  0  0  0  0  0  0  0
   -5.7156    0.0000    0.0000 C   0  0  0  0  0  0  0  0  0  0  0  0
   -5.0011    0.0000    0.0000 C   0  0  0  0  0  0  0  0  0  0  0  0
   -4.2867    0.0000    0.0000 C   0  0  0  0  0  0  0  0  0  0  0  0
   -3.5722    0.0000    0.0000 C   0  0  0  0  0  0  0  0  0  0  0  0
   -2.8578    0.0000    0.0000 C   0  0  0  0  0  0  0  0  0  0  0  0
   -2.1433    0.0000    0.0000 C   0  0  0  0  0  0  0  0  0  0  0  0
   -1.4289    0.0000    0.0000 C   0  0  0  0  0  0  0  0  0  0  0  0
   -0.7144    0.0000    0.0000 C   0  0  0  0  0  0  0  0  0  0  0  0
    0.0001    0.0000    0.0000 C   0  0  0  0  0  0  0  0  0  0  0  0
    0.7144    0.0000    0.0000 C   0  0  0  0  0  0  0  0  0  0  0  0
    1.4289    0.0000    0.0000 C   0  0  0  0  0  0  0  0  0  0  0  0
    1.4289    0.0000    0.0000 O   0  0  0  0  0  0  0  0  0  0  0  0
    2.1434    0.0000    0.0000 C   0  0  0  0  0  0  0  0  0  0  0  0
    2.8578    0.0000    0.0000 C   0  0  0  0  0  0  0  0  0  0  0  0
    3.5722    0.0000    0.0000 C   0  0  0  0  0  0  0  0  0  0  0  0
    4.2867    0.0000    0.0000 C   0  0  0  0  0  0  0  0  0  0  0  0
    5.0012    0.0000    0.0000 C   0  0  0  0  0  0  0  0  0  0  0  0
    5.0012    0.0000    0.0000 C   0  0  0  0  0  0  0  0  0  0  0  0
    4.2867    0.0000    0.0000 C   0  0  0  0  0  0  0  0  0  0  0  0
    3.5722    0.0000    0.0000 C   0  0  0  0  0  0  0  0  0  0  0  0
    5.7156    0.0000    0.0000 O   0  0  0  0  0  0  0  0  0  0  0  0
    5.7156    0.0000    0.0000 O   0  0  0  0  0  0  0  0  0  0  0  0
    6.4301    0.0000    0.0000 C   0  0  0  0  0  0  0  0  0  0  0  0
    0.0001    0.0000    0.0000 O   0  0  0  0  0  0  0  0  0  0  0  0
  1  2  1  0      
  2  3  1  0      
  3  4  1  0      
  4  5  1  0      
  5  6  1  0      
  6  7  1  0      
  7  8  1  0      
  8  9  1  0      
  9 10  1  0      
 10 11  1  0      
 11 12  1  0      
 12 13  2  0      
 12 14  1  0      
 14 15  1  0      
 15 16  1  0      
 16 17  2  0      
 17 18  1  0      
 18 19  2  0      
 19 20  1  0      
 20 21  2  0      
 16 21  1  0      
 19 22  1  0      
 18 23  1  0      
 23 24  1  0      
 10 25  1  0      
M  END
>  <Bioactivity>
10-Gingerol-induced apoptosis was accompanied by phosphorylation of the mitogen-activated protein kinase (MAPKs) family, c-Jun N-terminal kinase (JNK), p38 MAPK (p38), and extracellular signal-regulat
ed kinase (ERK). 

>  <CAS>
23513-15-7

>  <Col>
10

>  <Formula>
C21H34O4

>  <ID>
T3908

>  <Index>
839

>  <MOLENAME>
10-Gingerol

>  <MolWt>
350.49

>  <Pathways>
Apoptosis

>  <Plate>
PLATE 011

>  <QR code>
1151480572

>  <Receptor>
Apoptosis inducer

>  <Reference>
1.Ryu MJ1, Chung HS.[10]-Gingerol induces mitochondrial apoptosis through activation of MAPK pathway in HCT116 human colon cancer cells.In Vitro Cell Dev Biol Anim. 2015 Jan;51(1):92-101. 

>  <Row>
D

>  <SMILES>
CCCCCCCCCC(CC(=O)CCC1=CC(=C(C=C1)O)OC)O

>  <Target>
Apoptosis inducer

>  <Weight>
10.3mg

$$$$
Lab-1.sdf
  ChemDraw05232018482D

 85 94  0  0  0  0  0  0  0  0999 V2000
   -6.3172    0.0000    0.0000 C   0  0  0  0  0  0  0  0  0  0  0  0
   -6.8122    0.0000    0.0000 C   0  0  0  0  0  0  0  0  0  0  0  0
   -7.6313    0.0000    0.0000 C   0  0  0  0  0  0  0  0  0  0  0  0
   -8.1263    0.0000    0.0000 C   0  0  0  0  0  0  0  0  0  0  0  0
   -7.8022    0.0000    0.0000 C   0  0  0  0  0  0  0  0  0  0  0  0
   -6.9832    0.0000    0.0000 C   0  0  0  0  0  0  0  0  0  0  0  0
   -6.4881    0.0000    0.0000 O   0  0  0  0  0  0  0  0  0  0  0  0
   -6.6591    0.0000    0.0000 O   0  0  0  0  0  0  0  0  0  0  0  0
   -5.8400    0.0000    0.0000 C   0  0  0  0  0  0  0  0  0  0  0  0
   -5.3450    0.0000    0.0000 C   0  0  0  0  0  0  0  0  0  0  0  0
   -4.5259    0.0000    0.0000 O   0  0  0  0  0  0  0  0  0  0  0  0
   -4.2019    0.0000    0.0000 C   0  0  0  0  0  0  0  0  0  0  0  0
   -4.6969    0.0000    0.0000 C   0  0  0  0  0  0  0  0  0  0  0  0
   -5.5160    0.0000    0.0000 C   0  0  0  0  0  0  0  0  0  0  0  0
   -6.0110    0.0000    0.0000 O   0  0  0  0  0  0  0  0  0  0  0  0
   -4.3728    0.0000    0.0000 O   0  0  0  0  0  0  0  0  0  0  0  0
   -3.3828    0.0000    0.0000 O   0  0  0  0  0  0  0  0  0  0  0  0
   -2.8878    0.0000    0.0000 C   0  0  0  0  0  0  0  0  0  0  0  0
   -2.0687    0.0000    0.0000 C   0  0  0  0  0  0  0  0  0  0  0  0
   -1.7447    0.0000    0.0000 C   0  0  0  0  0  0  0  0  0  0  0  0
   -0.9256    0.0000    0.0000 C   0  0  0  0  0  0  0  0  0  0  0  0
   -0.4306    0.0000    0.0000 C   0  0  0  0  0  0  0  0  0  0  0  0
   -0.7546    0.0000    0.0000 C   0  0  0  0  0  0  0  0  0  0  0  0
   -1.5737    0.0000    0.0000 O   0  0  0  0  0  0  0  0  0  0  0  0
   -0.2596    0.0000    0.0000 O   0  0  0  0  0  0  0  0  0  0  0  0
    0.5595    0.0000    0.0000 C   0  0  0  0  0  0  0  0  0  0  0  0
    0.8835    0.0000    0.0000 O   0  0  0  0  0  0  0  0  0  0  0  0
    1.0545    0.0000    0.0000 C   0  0  0  0  0  0  0  0  0  0  0  0
    0.2502    0.0000    0.0000 C   0  0  0  0  0  0  0  0  0  0  0  0
    0.1765    0.0000    0.0000 C   0  0  0  0  0  0  0  0  0  0  0  0
    0.9352    0.0000    0.0000 C   0  0  0  0  0  0  0  0  0  0  0  0
    1.4778    0.0000    0.0000 C   0  0  0  0  0  0  0  0  0  0  0  0
    2.3027    0.0000    0.0000 C   0  0  0  0  0  0  0  0  0  0  0  0
    2.7260    0.0000    0.0000 C   0  0  0  0  0  0  0  0  0  0  0  0
    3.5509    0.0000    0.0000 C   0  0  0  0  0  0  0  0  0  0  0  0
    3.9525    0.0000    0.0000 C   0  0  0  0  0  0  0  0  0  0  0  0
    4.7774    0.0000    0.0000 C   0  0  0  0  0  0  0  0  0  0  0  0
    5.2007    0.0000    0.0000 C   0  0  0  0  0  0  0  0  0  0  0  0
    6.0256    0.0000    0.0000 C   0  0  0  0  0  0  0  0  0  0  0  0
    6.4272    0.0000    0.0000 C   0  0  0  0  0  0  0  0  0  0  0  0
    6.0039    0.0000    0.0000 C   0  0  0  0  0  0  0  0  0  0  0  0
    5.1790    0.0000    0.0000 C   0  0  0  0  0  0  0  0  0  0  0  0
    4.7557    0.0000    0.0000 C   0  0  0  0  0  0  0  0  0  0  0  0
    3.9308    0.0000    0.0000 C   0  0  0  0  0  0  0  0  0  0  0  0
    3.5292    0.0000    0.0000 C   0  0  0  0  0  0  0  0  0  0  0  0
    2.7043    0.0000    0.0000 C   0  0  0  0  0  0  0  0  0  0  0  0
    2.2810    0.0000    0.0000 C   0  0  0  0  0  0  0  0  0  0  0  0
    1.4561    0.0000    0.0000 C   0  0  0  0  0  0  0  0  0  0  0  0
    3.1059    0.0000    0.0000 C   0  0  0  0  0  0  0  0  0  0  0  0
    3.6029    0.0000    0.0000 C   0  0  0  0  0  0  0  0  0  0  0  0
    6.6968    0.0000    0.0000 C   0  0  0  0  0  0  0  0  0  0  0  0
    6.0202    0.0000    0.0000 C   0  0  0  0  0  0  0  0  0  0  0  0
    6.7426    0.0000    0.0000 O   0  0  0  0  0  0  0  0  0  0  0  0
    7.2521    0.0000    0.0000 O   0  0  0  0  0  0  0  0  0  0  0  0
    7.6755    0.0000    0.0000 C   0  0  0  0  0  0  0  0  0  0  0  0
    7.2739    0.0000    0.0000 C   0  0  0  0  0  0  0  0  0  0  0  0
    7.6972    0.0000    0.0000 C   0  0  0  0  0  0  0  0  0  0  0  0
    8.5221    0.0000    0.0000 C   0  0  0  0  0  0  0  0  0  0  0  0
    8.9237    0.0000    0.0000 C   0  0  0  0  0  0  0  0  0  0  0  0
    8.5004    0.0000    0.0000 O   0  0  0  0  0  0  0  0  0  0  0  0
    8.9454    0.0000    0.0000 O   0  0  0  0  0  0  0  0  0  0  0  0
    7.2956    0.0000    0.0000 O   0  0  0  0  0  0  0  0  0  0  0  0
    6.4490    0.0000    0.0000 O   0  0  0  0  0  0  0  0  0  0  0  0
    6.0474    0.0000    0.0000 C   0  0  0  0  0  0  0  0  0  0  0  0
    5.2225    0.0000    0.0000 C   0  0  0  0  0  0  0  0  0  0  0  0
    4.8209    0.0000    0.0000 C   0  0  0  0  0  0  0  0  0  0  0  0
    5.2442    0.0000    0.0000 C   0  0  0  0  0  0  0  0  0  0  0  0
    6.0691    0.0000    0.0000 C   0  0  0  0  0  0  0  0  0  0  0  0
    6.4707    0.0000    0.0000 O   0  0  0  0  0  0  0  0  0  0  0  0
    6.4924    0.0000    0.0000 C   0  0  0  0  0  0  0  0  0  0  0  0
    4.8426    0.0000    0.0000 O   0  0  0  0  0  0  0  0  0  0  0  0
    3.9960    0.0000    0.0000 O   0  0  0  0  0  0  0  0  0  0  0  0
    4.7992    0.0000    0.0000 O   0  0  0  0  0  0  0  0  0  0  0  0
    4.3758    0.0000    0.0000 C   0  0  0  0  0  0  0  0  0  0  0  0
    1.1189    0.0000    0.0000 C   0  0  0  0  0  0  0  0  0  0  0  0
    1.9073    0.0000    0.0000 C   0  0  0  0  0  0  0  0  0  0  0  0
    0.5143    0.0000    0.0000 C   0  0  0  0  0  0  0  0  0  0  0  0
    0.3885    0.0000    0.0000 O   0  0  0  0  0  0  0  0  0  0  0  0
   -0.6015    0.0000    0.0000 O   0  0  0  0  0  0  0  0  0  0  0  0
   -2.2397    0.0000    0.0000 O   0  0  0  0  0  0  0  0  0  0  0  0
   -5.6691    0.0000    0.0000 C   0  0  0  0  0  0  0  0  0  0  0  0
   -5.1740    0.0000    0.0000 O   0  0  0  0  0  0  0  0  0  0  0  0
   -8.2972    0.0000    0.0000 O   0  0  0  0  0  0  0  0  0  0  0  0
   -8.9454    0.0000    0.0000 O   0  0  0  0  0  0  0  0  0  0  0  0
   -7.9553    0.0000    0.0000 O   0  0  0  0  0  0  0  0  0  0  0  0
  1  2  1  0      
  2  3  1  0      
  3  4  1  0      
  4  5  1  0      
  5  6  1  0      
  6  7  1  0      
  2  7  1  0      
  6  8  1  0      
  8  9  1  0      
  9 10  1  0      
 10 11  1  0      
 11 12  1  0      
 12 13  1  0      
 13 14  1  0      
  9 14  1  0      
 14 15  1  0      
 13 16  1  0      
 12 17  1  0      
 17 18  1  0      
 18 19  1  0      
 19 20  1  0      
 20 21  1  0      
 21 22  1  0      
 22 23  1  0      
 23 24  1  0      
 19 24  1  0      
 23 25  1  0      
 25 26  1  0      
 26 27  2  0      
 26 28  1  0      
 28 29  1  0      
 29 30  1  0      
 30 31  1  0      
 31 32  1  0      
 28 32  1  0      
 32 33  1  0      
 33 34  1  0      
 34 35  1  0      
 35 36  1  0      
 36 37  1  0      
 37 38  1  0      
 38 39  1  0      
 39 40  1  0      
 40 41  1  0      
 41 42  1  0      
 37 42  1  0      
 42 43  1  0      
 43 44  1  0      
 44 45  1  0      
 36 45  1  0      
 45 46  1  0      
 33 46  1  0      
 46 47  1  0      
 47 48  1  0      
 28 48  1  0      
 46 49  1  0      
 45 50  1  0      
 41 51  1  0      
 41 52  1  0      
 52 53  1  0      
 40 54  1  0      
 54 55  1  0      
 55 56  1  0      
 56 57  1  0      
 57 58  1  0      
 58 59  1  0      
 59 60  1  0      
 55 60  1  0      
 58 61  1  0      
 57 62  1  0      
 56 63  1  0      
 63 64  1  0      
 64 65  1  0      
 65 66  1  0      
 66 67  1  0      
 67 68  1  0      
 68 69  1  0      
 64 69  1  0      
 68 70  1  0      
 67 71  1  0      
 66 72  1  0      
 65 73  1  0      
 37 74  1  0      
 31 75  1  0      
 75 76  2  0      
 75 77  1  0      
 22 78  1  0      
 21 79  1  0      
 20 80  1  0      
 10 81  1  0      
 81 82  1  0      
  5 83  1  0      
  4 84  1  0      
  3 85  1  0      
M  END
>  <Bioactivity>
Anemoside B4 inhibits the secretion of IL-10.

>  <CAS>
129741-57-7

>  <Col>
11

>  <Formula>
C59H96O26 

>  <ID>
T3910

>  <Index>
840

>  <MOLENAME>
Anemoside B4

>  <MolWt>
1221.38

>  <Pathways>
Others

>  <Plate>
PLATE 011

>  <QR code>
1151480573

>  <Receptor>
IL-10

>  <Reference>
1.Hu Y1, He K1, Wang X1.Role of Chinese herbal medicinal ingredients in secretion of cytokines by PCV2-induced endothelial cells.J Immunotoxicol. 2016;13(2):141-7.

>  <Row>
D

>  <SMILES>
CC1C(C(C(C(O1)OC2C(OC(C(C2O)O)OCC3C(C(C(C(O3)OC(=O)C45CCC(C4C6CCC7C8(CCC(C(C8CCC7(C6(CC5)C)C)(C)CO)OC9C(C(C(CO9)O)O)OC1C(C(C(C(O1)C)O)O)O)C)C(=C)C)O)O)O)CO)O)O)O

>  <Target>
IL Receptor inhibitor

>  <Weight>
10.2mg

$$$$
Lab-1.sdf
  ChemDraw05232018482D

 23 24  0  0  0  0  0  0  0  0999 V2000
   -1.4290    0.0000    0.0000 C   0  0  0  0  0  0  0  0  0  0  0  0
   -1.4290    0.0000    0.0000 C   0  0  0  0  0  0  0  0  0  0  0  0
   -0.7145    0.0000    0.0000 C   0  0  0  0  0  0  0  0  0  0  0  0
   -0.7145    0.0000    0.0000 C   0  0  0  0  0  0  0  0  0  0  0  0
   -1.4290    0.0000    0.0000 C   0  0  0  0  0  0  0  0  0  0  0  0
   -2.1433    0.0000    0.0000 N   0  0  0  0  0  0  0  0  0  0  0  0
   -0.0000    0.0000    0.0000 C   0  0  0  0  0  0  0  0  0  0  0  0
   -0.0000    0.0000    0.0000 C   0  0  0  0  0  0  0  0  0  0  0  0
   -0.7145    0.0000    0.0000 C   0  0  0  0  0  0  0  0  0  0  0  0
   -0.7145    0.0000    0.0000 O   0  0  0  0  0  0  0  0  0  0  0  0
    0.7145    0.0000    0.0000 O   0  0  0  0  0  0  0  0  0  0  0  0
    0.7145    0.0000    0.0000 O   0  0  0  0  0  0  0  0  0  0  0  0
    0.7145    0.0000    0.0000 C   0  0  0  0  0  0  0  0  0  0  0  0
    1.4289    0.0000    0.0000 C   0  0  0  0  0  0  0  0  0  0  0  0
    1.4289    0.0000    0.0000 C   0  0  0  0  0  0  0  0  0  0  0  0
    0.7145    0.0000    0.0000 C   0  0  0  0  0  0  0  0  0  0  0  0
   -0.0000    0.0000    0.0000 C   0  0  0  0  0  0  0  0  0  0  0  0
   -0.0000    0.0000    0.0000 O   0  0  0  0  0  0  0  0  0  0  0  0
   -0.7145    0.0000    0.0000 C   0  0  0  0  0  0  0  0  0  0  0  0
   -0.7145    0.0000    0.0000 O   0  0  0  0  0  0  0  0  0  0  0  0
    0.7145    0.0000    0.0000 O   0  0  0  0  0  0  0  0  0  0  0  0
    2.1433    0.0000    0.0000 O   0  0  0  0  0  0  0  0  0  0  0  0
    2.1433    0.0000    0.0000 O   0  0  0  0  0  0  0  0  0  0  0  0
  1  2  2  0      
  2  3  1  0      
  3  4  2  0      
  4  5  1  4      
  5  6  3  0      
  3  7  1  0      
  7  8  1  0      
  8  9  1  0      
  1  9  1  0      
  9 10  1  0      
  8 11  1  0      
  7 12  1  0      
 12 13  1  0      
 13 14  1  0      
 14 15  1  0      
 15 16  1  0      
 16 17  1  0      
 17 18  1  0      
 13 18  1  0      
 17 19  1  0      
 19 20  1  0      
 16 21  1  0      
 15 22  1  0      
 14 23  1  0      
M  END
>  <Bioactivity>
 Lithospermoside has anti-oxidant, anti-tumor promoting activities.

>  <CAS>
63492-69-3

>  <Col>
2

>  <Formula>
C14H19NO8

>  <ID>
T3784

>  <Index>
841

>  <MOLENAME>
Griffonin

>  <MolWt>
329.3

>  <Pathways>
Others

>  <Plate>
PLATE 011

>  <QR code>
1151480561

>  <Receptor>
Others

>  <Reference>
1. Tih AE,et al. Minor biflavonoids from Lophira alata leaves. J Nat Prod. 2006 Aug;69(8):1206-8.

>  <Row>
E

>  <SMILES>
C1=CC(=CC#N)C(C(C1O)O)OC2C(C(C(C(O2)CO)O)O)O

>  <Target>
Others

>  <Weight>
10.1mg

$$$$
Lab-1.sdf
  ChemDraw05232018482D

 37 41  0  0  0  0  0  0  0  0999 V2000
    2.3679    0.0000    0.0000 C   0  0  0  0  0  0  0  0  0  0  0  0
    3.1438    0.0000    0.0000 C   0  0  0  0  0  0  0  0  0  0  0  0
    3.3731    0.0000    0.0000 C   0  0  0  0  0  0  0  0  0  0  0  0
    4.1977    0.0000    0.0000 C   0  0  0  0  0  0  0  0  0  0  0  0
    4.4780    0.0000    0.0000 O   0  0  0  0  0  0  0  0  0  0  0  0
    3.8267    0.0000    0.0000 C   0  0  0  0  0  0  0  0  0  0  0  0
    3.8535    0.0000    0.0000 O   0  0  0  0  0  0  0  0  0  0  0  0
    4.6607    0.0000    0.0000 C   0  0  0  0  0  0  0  0  0  0  0  0
    2.8668    0.0000    0.0000 C   0  0  0  0  0  0  0  0  0  0  0  0
    2.0494    0.0000    0.0000 C   0  0  0  0  0  0  0  0  0  0  0  0
    1.5431    0.0000    0.0000 C   0  0  0  0  0  0  0  0  0  0  0  0
    2.1945    0.0000    0.0000 C   0  0  0  0  0  0  0  0  0  0  0  0
    1.0367    0.0000    0.0000 C   0  0  0  0  0  0  0  0  0  0  0  0
    1.2660    0.0000    0.0000 C   0  0  0  0  0  0  0  0  0  0  0  0
    0.5832    0.0000    0.0000 C   0  0  0  0  0  0  0  0  0  0  0  0
   -0.0682    0.0000    0.0000 C   0  0  0  0  0  0  0  0  0  0  0  0
    0.2121    0.0000    0.0000 C   0  0  0  0  0  0  0  0  0  0  0  0
   -0.3197    0.0000    0.0000 C   0  0  0  0  0  0  0  0  0  0  0  0
   -1.1318    0.0000    0.0000 C   0  0  0  0  0  0  0  0  0  0  0  0
   -1.4121    0.0000    0.0000 C   0  0  0  0  0  0  0  0  0  0  0  0
   -0.8803    0.0000    0.0000 C   0  0  0  0  0  0  0  0  0  0  0  0
   -1.1606    0.0000    0.0000 C   0  0  0  0  0  0  0  0  0  0  0  0
   -1.9727    0.0000    0.0000 C   0  0  0  0  0  0  0  0  0  0  0  0
   -2.2531    0.0000    0.0000 O   0  0  0  0  0  0  0  0  0  0  0  0
   -2.5046    0.0000    0.0000 C   0  0  0  0  0  0  0  0  0  0  0  0
   -2.2243    0.0000    0.0000 C   0  0  0  0  0  0  0  0  0  0  0  0
   -2.7561    0.0000    0.0000 C   0  0  0  0  0  0  0  0  0  0  0  0
   -3.5682    0.0000    0.0000 C   0  0  0  0  0  0  0  0  0  0  0  0
   -3.8485    0.0000    0.0000 C   0  0  0  0  0  0  0  0  0  0  0  0
   -3.3167    0.0000    0.0000 C   0  0  0  0  0  0  0  0  0  0  0  0
   -4.6607    0.0000    0.0000 O   0  0  0  0  0  0  0  0  0  0  0  0
   -4.1001    0.0000    0.0000 O   0  0  0  0  0  0  0  0  0  0  0  0
   -1.9439    0.0000    0.0000 C   0  0  0  0  0  0  0  0  0  0  0  0
    0.5720    0.0000    0.0000 C   0  0  0  0  0  0  0  0  0  0  0  0
   -0.2658    0.0000    0.0000 O   0  0  0  0  0  0  0  0  0  0  0  0
    0.8917    0.0000    0.0000 O   0  0  0  0  0  0  0  0  0  0  0  0
    1.7385    0.0000    0.0000 O   0  0  0  0  0  0  0  0  0  0  0  0
  1  2  1  0      
  2  3  1  0      
  3  4  1  0      
  4  5  1  0      
  5  6  1  0      
  2  6  1  0      
  6  7  2  0      
  4  8  1  0      
  3  9  1  0      
  9 10  1  0      
 10 11  1  0      
 11 12  1  0      
 11 13  1  0      
 13 14  1  0      
 14 15  1  0      
 15 16  1  0      
 16 17  1  0      
 13 17  1  0      
 17 18  1  0      
 18 19  1  0      
 19 20  1  0      
 20 21  1  0      
 16 21  1  0      
 21 22  2  0      
 22 23  1  0      
 23 24  2  0      
 23 25  1  0      
 25 26  1  0      
 20 26  1  0      
 26 27  1  0      
 27 28  1  0      
 28 29  1  0      
 29 30  1  0      
 25 30  1  0      
 29 31  1  0      
 28 32  1  0      
 26 33  1  0      
 17 34  1  0      
 16 35  1  0      
 11 36  1  0      
 10 37  1  0      
M  END
>  <Bioactivity>
Cyasterone, a natural EGFR inhibitor, can inhibit growth of A549 and MGC823 cells, via regulating EGFR signaling pathway, it maybe a promising anti-cancer agent.Cyasterone has antifeeding activity.

>  <CAS>
17086-76-9

>  <Col>
3

>  <Formula>
C29H44O8

>  <ID>
T3870

>  <Index>
842

>  <MOLENAME>
Cyasterone

>  <MolWt>
520.663

>  <Pathways>
Tyrosine Kinase

>  <Plate>
PLATE 011

>  <QR code>
1151480560

>  <Receptor>
EGFR

>  <Reference>
1. Hirayama Y,et al. Stereochemical assignment of C-24 and C-25 of amarasterone A, a putative biosynthetic intermediate of cyasterone. 

>  <Row>
E

>  <SMILES>
CC1C(C(OC1=O)C)CC(C(C)(C2CCC3(C2(CCC4C3=CC(=O)C5C4(CC(C(C5)O)O)C)C)O)O)O

>  <Target>
EGFR inhibitor

>  <Weight>
10.3mg

$$$$
Lab-1.sdf
  ChemDraw05232018482D

 13 13  0  0  0  0  0  0  0  0999 V2000
   -2.8578    0.0000    0.0000 C   0  0  0  0  0  0  0  0  0  0  0  0
   -2.1433    0.0000    0.0000 C   0  0  0  0  0  0  0  0  0  0  0  0
   -1.4290    0.0000    0.0000 C   0  0  0  0  0  0  0  0  0  0  0  0
   -0.7145    0.0000    0.0000 C   0  0  0  0  0  0  0  0  0  0  0  0
   -0.0000    0.0000    0.0000 C   0  0  0  0  0  0  0  0  0  0  0  0
    0.7145    0.0000    0.0000 C   0  0  0  0  0  0  0  0  0  0  0  0
    1.4289    0.0000    0.0000 C   0  0  0  0  0  0  0  0  0  0  0  0
    2.1433    0.0000    0.0000 C   0  0  0  0  0  0  0  0  0  0  0  0
    2.1433    0.0000    0.0000 C   0  0  0  0  0  0  0  0  0  0  0  0
    1.4289    0.0000    0.0000 C   0  0  0  0  0  0  0  0  0  0  0  0
    0.7145    0.0000    0.0000 C   0  0  0  0  0  0  0  0  0  0  0  0
    1.4289    0.0000    0.0000 O   0  0  0  0  0  0  0  0  0  0  0  0
    2.8578    0.0000    0.0000 O   0  0  0  0  0  0  0  0  0  0  0  0
  1  2  1  0      
  2  3  1  0      
  3  4  1  0      
  4  5  1  0      
  5  6  1  0      
  6  7  2  0      
  7  8  1  0      
  8  9  2  0      
  9 10  1  0      
 10 11  2  0      
  6 11  1  0      
 10 12  1  0      
  8 13  1  0      
M  END
>  <Bioactivity>
Olivetol, also known as 5-pentylresorcinol or 5-pentyl-1,3-benzenediol, is an organic compound found in certain species of lichen; it is also a precursor in various syntheses of tetrahydrocannabinol. 
Olivetol has antioxidant effect.

>  <CAS>
500-66-3

>  <Col>
4

>  <Formula>
C11H16O2

>  <ID>
T3736

>  <Index>
843

>  <MOLENAME>
Olivetol

>  <MolWt>
180.24

>  <Pathways>
Immunology/Inflammation

>  <Plate>
PLATE 011

>  <QR code>
1151480559

>  <Receptor>
IkB

>  <Reference>
1.Sarah K. Oettl, et al. PLoS One. 2013; 8(10): e76929.

>  <Row>
E

>  <SMILES>
CCCCCC1=CC(=CC(=C1)O)O

>  <Target>
NF-kB

>  <Weight>
10.2mg

$$$$
Lab-1.sdf
  ChemDraw05232018482D

 28 30  0  0  0  0  0  0  0  0999 V2000
   -2.8929    0.0000    0.0000 C   0  0  0  0  0  0  0  0  0  0  0  0
   -2.1784    0.0000    0.0000 C   0  0  0  0  0  0  0  0  0  0  0  0
   -2.6633    0.0000    0.0000 C   0  0  0  0  0  0  0  0  0  0  0  0
   -2.1784    0.0000    0.0000 C   0  0  0  0  0  0  0  0  0  0  0  0
   -1.3938    0.0000    0.0000 C   0  0  0  0  0  0  0  0  0  0  0  0
   -1.3938    0.0000    0.0000 C   0  0  0  0  0  0  0  0  0  0  0  0
   -0.6793    0.0000    0.0000 C   0  0  0  0  0  0  0  0  0  0  0  0
    0.0351    0.0000    0.0000 O   0  0  0  0  0  0  0  0  0  0  0  0
    0.0351    0.0000    0.0000 C   0  0  0  0  0  0  0  0  0  0  0  0
   -0.6793    0.0000    0.0000 C   0  0  0  0  0  0  0  0  0  0  0  0
   -0.6793    0.0000    0.0000 C   0  0  0  0  0  0  0  0  0  0  0  0
    0.0351    0.0000    0.0000 O   0  0  0  0  0  0  0  0  0  0  0  0
   -1.3938    0.0000    0.0000 O   0  0  0  0  0  0  0  0  0  0  0  0
   -1.3938    0.0000    0.0000 C   0  0  0  0  0  0  0  0  0  0  0  0
   -0.6793    0.0000    0.0000 O   0  0  0  0  0  0  0  0  0  0  0  0
    0.0351    0.0000    0.0000 C   0  0  0  0  0  0  0  0  0  0  0  0
    0.0351    0.0000    0.0000 C   0  0  0  0  0  0  0  0  0  0  0  0
    0.7495    0.0000    0.0000 C   0  0  0  0  0  0  0  0  0  0  0  0
    1.4640    0.0000    0.0000 C   0  0  0  0  0  0  0  0  0  0  0  0
    1.4640    0.0000    0.0000 C   0  0  0  0  0  0  0  0  0  0  0  0
    0.7495    0.0000    0.0000 O   0  0  0  0  0  0  0  0  0  0  0  0
    2.1785    0.0000    0.0000 C   0  0  0  0  0  0  0  0  0  0  0  0
    2.8929    0.0000    0.0000 O   0  0  0  0  0  0  0  0  0  0  0  0
    2.1785    0.0000    0.0000 O   0  0  0  0  0  0  0  0  0  0  0  0
    0.7495    0.0000    0.0000 O   0  0  0  0  0  0  0  0  0  0  0  0
   -0.6793    0.0000    0.0000 O   0  0  0  0  0  0  0  0  0  0  0  0
   -2.4333    0.0000    0.0000 O   0  0  0  0  0  0  0  0  0  0  0  0
   -1.8428    0.0000    0.0000 O   0  0  0  0  0  0  0  0  0  0  0  0
  1  2  1  0      
  2  3  1  0      
  3  4  1  0      
  4  5  1  0      
  5  6  1  0      
  2  6  1  0      
  6  7  1  0      
  7  8  1  0      
  8  9  1  0      
  9 10  2  0      
  5 10  1  0      
 10 11  1  0      
 11 12  2  0      
 11 13  1  0      
 13 14  1  0      
  7 15  1  0      
 15 16  1  0      
 16 17  1  0      
 17 18  1  0      
 18 19  1  0      
 19 20  1  0      
 20 21  1  0      
 16 21  1  0      
 20 22  1  0      
 22 23  1  0      
 19 24  1  0      
 18 25  1  0      
 17 26  1  0      
  4 27  1  0      
  2 28  1  0      
M  END
>  <Bioactivity>
Shanzhiside methylester reduces neuropathic pain by activating spinal GLP-1 receptors and subsequently stimulating microglial ¦Â-endorphin expression via the p38 MAPK signaling.

>  <CAS>
64421-28-9

>  <Col>
5

>  <Formula>
C17H26O11

>  <ID>
T3896

>  <Index>
844

>  <MOLENAME>
SHANZHISIDE METHYL ESTER

>  <MolWt>
406.384

>  <Pathways>
MAPK

>  <Plate>
PLATE 011

>  <QR code>
1151480558

>  <Receptor>
GLP-1 

>  <Reference>
1. Fan PC,et al. Simultaneous determination of four shanzhiside methylester derivatives in rabbit plasma by liquid chromatography/tandem mass spectrometry.1 Biomed Chromatogr. 2012 Dec;26(12):1543-51.
 

>  <Row>
E

>  <SMILES>
CC1(CC(C2C1C(OC=C2C(=O)OC)OC3C(C(C(C(O3)CO)O)O)O)O)O

>  <Target>
GLP-1 receptor activator

>  <Weight>
10mg

$$$$
Lab-1.sdf
  ChemDraw05232018482D

 33 38  0  0  0  0  0  0  0  0999 V2000
    3.6965    0.0000    0.0000 C   0  0  0  0  0  0  0  0  0  0  0  0
    2.9159    0.0000    0.0000 C   0  0  0  0  0  0  0  0  0  0  0  0
    2.0910    0.0000    0.0000 C   0  0  0  0  0  0  0  0  0  0  0  0
    1.6925    0.0000    0.0000 C   0  0  0  0  0  0  0  0  0  0  0  0
    0.8677    0.0000    0.0000 C   0  0  0  0  0  0  0  0  0  0  0  0
    0.4413    0.0000    0.0000 C   0  0  0  0  0  0  0  0  0  0  0  0
    0.8397    0.0000    0.0000 C   0  0  0  0  0  0  0  0  0  0  0  0
    1.6645    0.0000    0.0000 C   0  0  0  0  0  0  0  0  0  0  0  0
    2.0630    0.0000    0.0000 C   0  0  0  0  0  0  0  0  0  0  0  0
    2.8879    0.0000    0.0000 C   0  0  0  0  0  0  0  0  0  0  0  0
    3.3143    0.0000    0.0000 C   0  0  0  0  0  0  0  0  0  0  0  0
    4.1391    0.0000    0.0000 O   0  0  0  0  0  0  0  0  0  0  0  0
    1.2381    0.0000    0.0000 C   0  0  0  0  0  0  0  0  0  0  0  0
    0.4132    0.0000    0.0000 C   0  0  0  0  0  0  0  0  0  0  0  0
   -0.4116    0.0000    0.0000 C   0  0  0  0  0  0  0  0  0  0  0  0
   -0.8100    0.0000    0.0000 C   0  0  0  0  0  0  0  0  0  0  0  0
   -0.3836    0.0000    0.0000 C   0  0  0  0  0  0  0  0  0  0  0  0
   -0.7820    0.0000    0.0000 C   0  0  0  0  0  0  0  0  0  0  0  0
   -1.6068    0.0000    0.0000 C   0  0  0  0  0  0  0  0  0  0  0  0
   -2.0334    0.0000    0.0000 C   0  0  0  0  0  0  0  0  0  0  0  0
   -1.6349    0.0000    0.0000 C   0  0  0  0  0  0  0  0  0  0  0  0
   -1.9514    0.0000    0.0000 C   0  0  0  0  0  0  0  0  0  0  0  0
   -2.7443    0.0000    0.0000 C   0  0  0  0  0  0  0  0  0  0  0  0
   -3.0268    0.0000    0.0000 C   0  0  0  0  0  0  0  0  0  0  0  0
   -2.8466    0.0000    0.0000 C   0  0  0  0  0  0  0  0  0  0  0  0
   -3.4622    0.0000    0.0000 O   0  0  0  0  0  0  0  0  0  0  0  0
   -3.4167    0.0000    0.0000 C   0  0  0  0  0  0  0  0  0  0  0  0
   -4.1391    0.0000    0.0000 O   0  0  0  0  0  0  0  0  0  0  0  0
   -2.8833    0.0000    0.0000 C   0  0  0  0  0  0  0  0  0  0  0  0
   -2.3767    0.0000    0.0000 C   0  0  0  0  0  0  0  0  0  0  0  0
    0.0429    0.0000    0.0000 C   0  0  0  0  0  0  0  0  0  0  0  0
    0.5436    0.0000    0.0000 C   0  0  0  0  0  0  0  0  0  0  0  0
    2.7886    0.0000    0.0000 C   0  0  0  0  0  0  0  0  0  0  0  0
  1  2  1  0      
  2  3  1  0      
  3  4  1  0      
  4  5  1  0      
  5  6  1  0      
  6  7  1  0      
  7  8  1  0      
  3  8  1  0      
  8  9  1  0      
  9 10  1  0      
 10 11  1  0      
  2 11  1  0      
 11 12  1  0      
  8 13  1  0      
  7 14  1  0      
 14 15  1  0      
 15 16  2  0      
 16 17  1  0      
  6 17  1  0      
 17 18  1  0      
 18 19  1  0      
 19 20  1  0      
 20 21  1  0      
 16 21  1  0      
 21 22  1  0      
 22 23  1  0      
 23 24  1  0      
 24 25  1  0      
 20 25  1  0      
 25 26  1  0      
 26 27  1  0      
 23 27  1  0      
 27 28  2  0      
 23 29  1  0      
 20 30  1  0      
 17 31  1  0      
  6 32  1  0      
  2 33  1  0      
M  END
>  <Bioactivity>
Others

>  <CAS>
84104-71-2

>  <Col>
6

>  <Formula>
C30H46O3

>  <ID>
T3382

>  <Index>
845

>  <MOLENAME>
Wilforlide A

>  <MolWt>
454.7

>  <Pathways>
High-dose Wilforlide A has obvious anti-inflammatory effect.?

>  <Plate>
PLATE 011

>  <QR code>
1151480557

>  <Receptor>
Others

>  <Reference>
1. Xue M, et al. Fitoterapia. 2010 Dec;81(8):1109-12.

>  <Row>
E

>  <SMILES>
CC1(C2CCC3(C(C2(CCC1O)C)CC=C4C3(CCC5(C4CC6(CC5OC6=O)C)C)C)C)C

>  <Target>
Others

>  <Weight>
10.3mg

$$$$
Lab-1.sdf
  ChemDraw05232018482D

 44 48  0  0  0  0  0  0  0  0999 V2000
    2.3296    0.0000    0.0000 C   0  0  0  0  0  0  0  0  0  0  0  0
    2.3892    0.0000    0.0000 C   0  0  0  0  0  0  0  0  0  0  0  0
    3.1315    0.0000    0.0000 C   0  0  0  0  0  0  0  0  0  0  0  0
    3.1911    0.0000    0.0000 C   0  0  0  0  0  0  0  0  0  0  0  0
    3.9335    0.0000    0.0000 C   0  0  0  0  0  0  0  0  0  0  0  0
    3.9930    0.0000    0.0000 C   0  0  0  0  0  0  0  0  0  0  0  0
    4.8159    0.0000    0.0000 C   0  0  0  0  0  0  0  0  0  0  0  0
    4.0525    0.0000    0.0000 C   0  0  0  0  0  0  0  0  0  0  0  0
    4.2819    0.0000    0.0000 C   0  0  0  0  0  0  0  0  0  0  0  0
    3.5990    0.0000    0.0000 C   0  0  0  0  0  0  0  0  0  0  0  0
    2.9476    0.0000    0.0000 C   0  0  0  0  0  0  0  0  0  0  0  0
    3.2279    0.0000    0.0000 C   0  0  0  0  0  0  0  0  0  0  0  0
    2.6961    0.0000    0.0000 C   0  0  0  0  0  0  0  0  0  0  0  0
    1.8840    0.0000    0.0000 C   0  0  0  0  0  0  0  0  0  0  0  0
    1.6037    0.0000    0.0000 C   0  0  0  0  0  0  0  0  0  0  0  0
    2.1355    0.0000    0.0000 C   0  0  0  0  0  0  0  0  0  0  0  0
    1.8552    0.0000    0.0000 C   0  0  0  0  0  0  0  0  0  0  0  0
    1.0431    0.0000    0.0000 C   0  0  0  0  0  0  0  0  0  0  0  0
    0.5113    0.0000    0.0000 C   0  0  0  0  0  0  0  0  0  0  0  0
    0.7916    0.0000    0.0000 C   0  0  0  0  0  0  0  0  0  0  0  0
    0.2598    0.0000    0.0000 C   0  0  0  0  0  0  0  0  0  0  0  0
   -0.5524    0.0000    0.0000 C   0  0  0  0  0  0  0  0  0  0  0  0
   -0.8327    0.0000    0.0000 C   0  0  0  0  0  0  0  0  0  0  0  0
   -0.3009    0.0000    0.0000 C   0  0  0  0  0  0  0  0  0  0  0  0
   -0.9127    0.0000    0.0000 C   0  0  0  0  0  0  0  0  0  0  0  0
   -0.1841    0.0000    0.0000 C   0  0  0  0  0  0  0  0  0  0  0  0
   -1.6449    0.0000    0.0000 O   0  0  0  0  0  0  0  0  0  0  0  0
   -2.1767    0.0000    0.0000 C   0  0  0  0  0  0  0  0  0  0  0  0
   -1.8964    0.0000    0.0000 C   0  0  0  0  0  0  0  0  0  0  0  0
   -2.4282    0.0000    0.0000 C   0  0  0  0  0  0  0  0  0  0  0  0
   -3.2403    0.0000    0.0000 C   0  0  0  0  0  0  0  0  0  0  0  0
   -3.5206    0.0000    0.0000 C   0  0  0  0  0  0  0  0  0  0  0  0
   -2.9888    0.0000    0.0000 O   0  0  0  0  0  0  0  0  0  0  0  0
   -4.3328    0.0000    0.0000 C   0  0  0  0  0  0  0  0  0  0  0  0
   -4.8647    0.0000    0.0000 O   0  0  0  0  0  0  0  0  0  0  0  0
   -3.7721    0.0000    0.0000 O   0  0  0  0  0  0  0  0  0  0  0  0
   -2.1479    0.0000    0.0000 O   0  0  0  0  0  0  0  0  0  0  0  0
   -1.0843    0.0000    0.0000 O   0  0  0  0  0  0  0  0  0  0  0  0
    1.0719    0.0000    0.0000 C   0  0  0  0  0  0  0  0  0  0  0  0
    2.9764    0.0000    0.0000 O   0  0  0  0  0  0  0  0  0  0  0  0
    2.7500    0.0000    0.0000 C   0  0  0  0  0  0  0  0  0  0  0  0
    4.8647    0.0000    0.0000 C   0  0  0  0  0  0  0  0  0  0  0  0
    3.1701    0.0000    0.0000 O   0  0  0  0  0  0  0  0  0  0  0  0
    1.7063    0.0000    0.0000 C   0  0  0  0  0  0  0  0  0  0  0  0
  1  2  1  0      
  2  3  2  0      
  3  4  1  0      
  4  5  1  0      
  5  6  1  0      
  6  7  1  0      
  6  8  1  0      
  8  9  1  0      
  9 10  1  0      
 10 11  1  0      
 11 12  1  0      
  8 12  1  0      
 12 13  1  0      
 13 14  1  0      
 14 15  1  0      
 15 16  1  0      
 11 16  1  0      
 16 17  1  0      
 17 18  1  0      
 18 19  1  0      
 19 20  1  0      
 15 20  1  0      
 20 21  1  0      
 21 22  1  0      
 22 23  1  0      
 23 24  1  0      
 19 24  1  0      
 24 25  1  0      
 24 26  1  0      
 23 27  1  0      
 27 28  1  0      
 28 29  1  0      
 29 30  1  0      
 30 31  1  0      
 31 32  1  0      
 32 33  1  0      
 28 33  1  0      
 32 34  1  0      
 34 35  1  0      
 31 36  1  0      
 30 37  1  0      
 29 38  1  0      
 20 39  1  0      
 13 40  1  0      
 11 41  1  0      
  8 42  1  0      
  6 43  1  0      
  2 44  1  0      
M  END
>  <Bioactivity>
20(R)-Ginsenoside Rh2, a minor stereoisomer of ginsenoside Rh2, possesses matrix metalloproteinase inhibitory. 20(R)-Ginsenoside Rh2 has a significant inhibitory effect on the proliferation. 20(R)-G
insenoside Rh2 has anti-inflammatory and antioxidative activities.20(R)-Ginsenoside Rh2 shows selective osteoclastgenesis inhibitory activity without any cytotoxicity up to 100 microM. 20 (R)-ginsen
oside Rh2 and 20(S)-ginsenoside Rh2 have anticancer effects and can increase inchoate apoptotic rate, reduce apoptotic rate significantly, enhance the activity of caspase-3 and induces apoptosis in hu
man lung adenocarcinoma A549 cells.

>  <CAS>
112246-15-8

>  <Col>
7

>  <Formula>
C36H62O8

>  <ID>
T3813

>  <Index>
846

>  <MOLENAME>
Ginsenoside Rh2

>  <MolWt>
622.884

>  <Pathways>
Proteases

>  <Plate>
PLATE 011

>  <QR code>
1151480556

>  <Receptor>
MMP

>  <Reference>
1. Choi WY,et al. Anti-inflammatory, antioxidative and matrix metalloproteinase inhibitory properties of 20(R)-ginsenoside Rh2 in cultured macrophages and keratinocytes. J Pharm Pharmacol. 2013 Feb;65
(2):310-6. 

>  <Row>
E

>  <SMILES>
CC(=CCCC(C)(C1(CCC2(C1C(CC3C2CCC4C3(CCC(C4(C)C)OC5C(C(C(C(O5)CO)O)O)O)C)O)C)C)O)C

>  <Target>
Matrix metalloproteinase inhibitor

>  <Weight>
10.2mg

$$$$
Lab-1.sdf
  ChemDraw05232018482D

 20 22  0  0  0  0  0  0  0  0999 V2000
    1.9603    0.0000    0.0000 C   0  0  0  0  0  0  0  0  0  0  0  0
    1.2458    0.0000    0.0000 N   0  0  0  0  0  0  0  0  0  0  0  0
    1.2458    0.0000    0.0000 C   0  0  0  0  0  0  0  0  0  0  0  0
    1.9603    0.0000    0.0000 N   0  0  0  0  0  0  0  0  0  0  0  0
    1.9603    0.0000    0.0000 C   0  0  0  0  0  0  0  0  0  0  0  0
    1.2458    0.0000    0.0000 N   0  0  0  0  0  0  0  0  0  0  0  0
    0.5314    0.0000    0.0000 C   0  0  0  0  0  0  0  0  0  0  0  0
    0.5314    0.0000    0.0000 C   0  0  0  0  0  0  0  0  0  0  0  0
   -0.2533    0.0000    0.0000 N   0  0  0  0  0  0  0  0  0  0  0  0
   -0.7382    0.0000    0.0000 C   0  0  0  0  0  0  0  0  0  0  0  0
   -0.2533    0.0000    0.0000 N   0  0  0  0  0  0  0  0  0  0  0  0
   -0.5082    0.0000    0.0000 C   0  0  0  0  0  0  0  0  0  0  0  0
   -0.0233    0.0000    0.0000 O   0  0  0  0  0  0  0  0  0  0  0  0
   -0.5082    0.0000    0.0000 C   0  0  0  0  0  0  0  0  0  0  0  0
   -0.2533    0.0000    0.0000 C   0  0  0  0  0  0  0  0  0  0  0  0
    0.5537    0.0000    0.0000 O   0  0  0  0  0  0  0  0  0  0  0  0
   -1.2928    0.0000    0.0000 C   0  0  0  0  0  0  0  0  0  0  0  0
   -1.9603    0.0000    0.0000 O   0  0  0  0  0  0  0  0  0  0  0  0
   -1.2928    0.0000    0.0000 C   0  0  0  0  0  0  0  0  0  0  0  0
   -1.9603    0.0000    0.0000 O   0  0  0  0  0  0  0  0  0  0  0  0
  1  2  1  0      
  2  3  1  0      
  3  4  2  0      
  4  5  1  0      
  5  6  2  0      
  6  7  1  0      
  7  8  2  0      
  3  8  1  0      
  8  9  1  0      
  9 10  2  0      
 10 11  1  0      
  7 11  1  0      
 12 11  1  6      
 12 13  1  0      
 13 14  1  0      
 14 15  1  6      
 15 16  1  0      
 14 17  1  0      
 17 18  1  1      
 17 19  1  0      
 12 19  1  0      
 19 20  1  1      
M  END
>  <Bioactivity>
N6-methyl adenosine (N6-methyl ATP) is a base modified analog of adenosine and is found as a minor nucleoside in natural RNAs.

>  <CAS>
1867-73-8

>  <Col>
8

>  <Formula>
C11H15N5O4

>  <ID>
T6599

>  <Index>
847

>  <MOLENAME>
N6-methyladenosine (m6A)

>  <MolWt>
281.27

>  <Pathways>
Others

>  <Plate>
PLATE 011

>  <QR code>
1151480555

>  <Receptor>
Others

>  <Reference>
1. Aloni Y, et al. J Virol, 1979, 32(1), 52-60.

>  <Row>
E

>  <SMILES>
CNC1=NC=NC2=C1N=CN2[C@@H]1O[C@H](CO)[C@@H](O)[C@H]1O |r,c:4,6,9,t:2|

>  <Target>
Others

>  <Weight>
10.4mg

$$$$
Lab-1.sdf
  ChemDraw05232018482D

 22 22  0  0  0  0  0  0  0  0999 V2000
   -5.3584    0.0000    0.0000 C   0  0  0  0  0  0  0  0  0  0  0  0
   -4.6439    0.0000    0.0000 C   0  0  0  0  0  0  0  0  0  0  0  0
   -4.6439    0.0000    0.0000 C   0  0  0  0  0  0  0  0  0  0  0  0
   -3.9294    0.0000    0.0000 C   0  0  0  0  0  0  0  0  0  0  0  0
   -3.2151    0.0000    0.0000 C   0  0  0  0  0  0  0  0  0  0  0  0
   -2.5006    0.0000    0.0000 C   0  0  0  0  0  0  0  0  0  0  0  0
   -1.7861    0.0000    0.0000 C   0  0  0  0  0  0  0  0  0  0  0  0
   -1.0717    0.0000    0.0000 C   0  0  0  0  0  0  0  0  0  0  0  0
   -0.3572    0.0000    0.0000 C   0  0  0  0  0  0  0  0  0  0  0  0
    0.3572    0.0000    0.0000 C   0  0  0  0  0  0  0  0  0  0  0  0
    0.3572    0.0000    0.0000 O   0  0  0  0  0  0  0  0  0  0  0  0
    1.0717    0.0000    0.0000 N   0  0  0  0  0  0  0  0  0  0  0  0
    1.7861    0.0000    0.0000 C   0  0  0  0  0  0  0  0  0  0  0  0
    2.5006    0.0000    0.0000 C   0  0  0  0  0  0  0  0  0  0  0  0
    3.2151    0.0000    0.0000 C   0  0  0  0  0  0  0  0  0  0  0  0
    3.9294    0.0000    0.0000 C   0  0  0  0  0  0  0  0  0  0  0  0
    3.9294    0.0000    0.0000 C   0  0  0  0  0  0  0  0  0  0  0  0
    3.2151    0.0000    0.0000 C   0  0  0  0  0  0  0  0  0  0  0  0
    2.5006    0.0000    0.0000 C   0  0  0  0  0  0  0  0  0  0  0  0
    4.6439    0.0000    0.0000 O   0  0  0  0  0  0  0  0  0  0  0  0
    4.6439    0.0000    0.0000 O   0  0  0  0  0  0  0  0  0  0  0  0
    5.3584    0.0000    0.0000 C   0  0  0  0  0  0  0  0  0  0  0  0
  1  2  1  0      
  2  3  1  0      
  2  4  1  0      
  4  5  1  0      
  5  6  1  0      
  6  7  1  0      
  7  8  1  0      
  8  9  1  0      
  9 10  1  0      
 10 11  2  0      
 10 12  1  0      
 12 13  1  0      
 13 14  1  0      
 14 15  2  0      
 15 16  1  0      
 16 17  2  0      
 17 18  1  0      
 18 19  2  0      
 14 19  1  0      
 17 20  1  0      
 16 21  1  0      
 21 22  1  0      
M  END
>  <Bioactivity>
Dihydrocapsaicin is isolated from Capsicum fruit. Capsaicin is the primary active component of the heat and pain-eliciting lipid soluble fraction of the Capsicum pepper. Like capsaicin, dihydrocapsaic
in is an irritant. Capsaicin is found in natural hot pepper extracts along with a number of impurities, including dihydrocapsaicin and several lesser impurities. Separation by HPLC is required in orde
r to obtain pure dihydrocapsaicin. Dihydrocapsaicin represents about 10% of the compound present in commercial preparations purporting to be pure capsaicin, but it has about the same pungency as capsa
icin. VR1 (vanilloid receptor 1) is a heat activated calcium ion channel which functions as a part of the normal nociceptive pain pathway. Capsaicin elicits a sensation of burning pain by activation o
f VR1 on small, non-myelinated polymodal C-type nociceptive nerve fibers. The potency of dihydrocapsaicin at VR1 appears equivalent to capsaicin. Antioxidant. Reduces oxidation of serum lipids. Mutage
nic. Dihydrocapsaicin is an activator of VR1.

>  <CAS>
19408-84-5

>  <Col>
9

>  <Formula>
C18H29NO3

>  <ID>
T2163

>  <Index>
848

>  <MOLENAME>
Dihydrocapsaicin

>  <MolWt>
307.434

>  <Pathways>
Others

>  <Plate>
PLATE 011

>  <QR code>
1151480554

>  <Receptor>
VR1

>  <Reference>
1. Lawson T, et al. The mutagenicity of capsaicin and dihydrocapsaicin in V79 cells. Cancer Lett. 1989 Nov 30;48(2):109-13.

>  <Row>
E

>  <SMILES>
CC(C)CCCCCCC(=O)NCC1=CC(=C(C=C1)O)OC

>  <Target>
VR1 activator

>  <Weight>
10.4mg

$$$$
Lab-1.sdf
  ChemDraw05232018482D

 42 48  0  0  0  0  0  0  0  0999 V2000
   -2.5804    0.0000    0.0000 C   0  0  0  0  0  0  0  0  0  0  0  0
   -2.5804    0.0000    0.0000 O   0  0  0  0  0  0  0  0  0  0  0  0
   -1.8659    0.0000    0.0000 C   0  0  0  0  0  0  0  0  0  0  0  0
   -1.8659    0.0000    0.0000 C   0  0  0  0  0  0  0  0  0  0  0  0
   -1.1514    0.0000    0.0000 C   0  0  0  0  0  0  0  0  0  0  0  0
   -0.4369    0.0000    0.0000 C   0  0  0  0  0  0  0  0  0  0  0  0
   -0.4369    0.0000    0.0000 C   0  0  0  0  0  0  0  0  0  0  0  0
    0.2775    0.0000    0.0000 O   0  0  0  0  0  0  0  0  0  0  0  0
    0.2775    0.0000    0.0000 C   0  0  0  0  0  0  0  0  0  0  0  0
   -1.1514    0.0000    0.0000 C   0  0  0  0  0  0  0  0  0  0  0  0
   -1.1514    0.0000    0.0000 O   0  0  0  0  0  0  0  0  0  0  0  0
   -1.1514    0.0000    0.0000 C   0  0  0  0  0  0  0  0  0  0  0  0
   -1.8659    0.0000    0.0000 C   0  0  0  0  0  0  0  0  0  0  0  0
   -1.8659    0.0000    0.0000 C   0  0  0  0  0  0  0  0  0  0  0  0
   -2.6505    0.0000    0.0000 C   0  0  0  0  0  0  0  0  0  0  0  0
   -3.1354    0.0000    0.0000 O   0  0  0  0  0  0  0  0  0  0  0  0
   -2.6505    0.0000    0.0000 C   0  0  0  0  0  0  0  0  0  0  0  0
   -2.9054    0.0000    0.0000 O   0  0  0  0  0  0  0  0  0  0  0  0
   -1.1514    0.0000    0.0000 C   0  0  0  0  0  0  0  0  0  0  0  0
   -1.1514    0.0000    0.0000 O   0  0  0  0  0  0  0  0  0  0  0  0
   -0.4369    0.0000    0.0000 C   0  0  0  0  0  0  0  0  0  0  0  0
    0.2775    0.0000    0.0000 O   0  0  0  0  0  0  0  0  0  0  0  0
    0.9920    0.0000    0.0000 C   0  0  0  0  0  0  0  0  0  0  0  0
    1.7065    0.0000    0.0000 C   0  0  0  0  0  0  0  0  0  0  0  0
    2.4209    0.0000    0.0000 O   0  0  0  0  0  0  0  0  0  0  0  0
    2.4209    0.0000    0.0000 C   0  0  0  0  0  0  0  0  0  0  0  0
    3.1354    0.0000    0.0000 C   0  0  0  0  0  0  0  0  0  0  0  0
    1.7065    0.0000    0.0000 O   0  0  0  0  0  0  0  0  0  0  0  0
    0.9920    0.0000    0.0000 C   0  0  0  0  0  0  0  0  0  0  0  0
    0.2775    0.0000    0.0000 C   0  0  0  0  0  0  0  0  0  0  0  0
    0.2775    0.0000    0.0000 O   0  0  0  0  0  0  0  0  0  0  0  0
   -0.4369    0.0000    0.0000 C   0  0  0  0  0  0  0  0  0  0  0  0
   -1.1514    0.0000    0.0000 O   0  0  0  0  0  0  0  0  0  0  0  0
   -0.4369    0.0000    0.0000 C   0  0  0  0  0  0  0  0  0  0  0  0
    0.2775    0.0000    0.0000 C   0  0  0  0  0  0  0  0  0  0  0  0
    0.9920    0.0000    0.0000 C   0  0  0  0  0  0  0  0  0  0  0  0
    0.9920    0.0000    0.0000 C   0  0  0  0  0  0  0  0  0  0  0  0
    1.7766    0.0000    0.0000 O   0  0  0  0  0  0  0  0  0  0  0  0
    2.2615    0.0000    0.0000 C   0  0  0  0  0  0  0  0  0  0  0  0
    1.7766    0.0000    0.0000 O   0  0  0  0  0  0  0  0  0  0  0  0
    0.2775    0.0000    0.0000 C   0  0  0  0  0  0  0  0  0  0  0  0
   -0.4369    0.0000    0.0000 C   0  0  0  0  0  0  0  0  0  0  0  0
  1  2  1  0      
  2  3  1  0      
  3  4  2  0      
  4  5  1  0      
  5  6  2  0      
  6  7  1  0      
  7  8  1  0      
  8  9  1  0      
  7 10  2  0      
  3 10  1  0      
 10 11  1  0      
  5 12  1  0      
 12 13  1  0      
 13 14  1  0      
 14 15  1  0      
 15 16  1  0      
 16 17  1  0      
 13 17  1  0      
 17 18  2  0      
 14 19  1  0      
 19 20  1  0      
 20 21  1  0      
 21 22  1  0      
 22 23  1  0      
 23 24  1  0      
 24 25  1  0      
 25 26  1  0      
 26 27  1  0      
 26 28  1  0      
 28 29  1  0      
 23 29  1  0      
 29 30  1  0      
 30 31  1  0      
 30 32  1  0      
 21 32  1  0      
 32 33  1  0      
 19 34  1  0      
 34 35  2  0      
 35 36  1  0      
 36 37  2  0      
 37 38  1  0      
 38 39  1  0      
 39 40  1  0      
 36 40  1  0      
 37 41  1  0      
 41 42  2  0      
 12 42  1  0      
 34 42  1  0      
M  END
>  <Bioactivity>
Etoposide is a semisynthetic derivative of podophyllotoxin, which inhibits DNA synthesis via topoisomerase II inhibition activity.

>  <CAS>
33419-42-0

>  <Col>
10

>  <Formula>
C29H32O13

>  <ID>
T0132

>  <Index>
849

>  <MOLENAME>
Etoposide

>  <MolWt>
588.56

>  <Pathways>
DNA Damage/DNA Repair; Immunology/Inflammation

>  <Plate>
PLATE 011

>  <QR code>
1151480553

>  <Receptor>
Topoisomerase II; MRP

>  <Reference>
1. Berman HM, et al. Nucleic Acids Res. 2000 Jan 1; 28(1):235-42. 

>  <Row>
E

>  <SMILES>
COC1=CC(=CC(OC)=C1O)C1C2C(COC2=O)C(OC2OC3COC(C)OC3C(O)C2O)C2=CC3=C(OCO3)C=C12

>  <Target>
Topoisomerase inhibitor; MRP inhibitor

>  <Weight>
10.1mg

$$$$
Lab-1.sdf
  ChemDraw05232018482D

 35 36  0  0  0  0  0  0  0  0999 V2000
    6.0728    0.0000    0.0000 Ca  0  2  0  0  0  0  0  0  0  0  0  0
   -6.0728    0.0000    0.0000 N   0  0  0  0  0  0  0  0  0  0  0  0
   -5.3584    0.0000    0.0000 C   0  0  0  0  0  0  0  0  0  0  0  0
   -4.6440    0.0000    0.0000 N   0  0  0  0  0  0  0  0  0  0  0  0
   -3.9295    0.0000    0.0000 C   0  0  0  0  0  0  0  0  0  0  0  0
   -3.2151    0.0000    0.0000 O   0  0  0  0  0  0  0  0  0  0  0  0
   -3.9295    0.0000    0.0000 C   0  0  0  0  0  0  0  0  0  0  0  0
   -4.6440    0.0000    0.0000 C   0  0  0  0  0  0  0  0  0  0  0  0
   -4.6440    0.0000    0.0000 N   0  0  0  0  0  0  0  0  0  0  0  0
   -3.9295    0.0000    0.0000 C   0  0  0  0  0  0  0  0  0  0  0  0
   -3.2151    0.0000    0.0000 C   0  0  0  0  0  0  0  0  0  0  0  0
   -2.5006    0.0000    0.0000 C   0  0  0  0  0  0  0  0  0  0  0  0
   -1.7861    0.0000    0.0000 N   0  0  0  0  0  0  0  0  0  0  0  0
   -1.0717    0.0000    0.0000 C   0  0  0  0  0  0  0  0  0  0  0  0
   -1.0717    0.0000    0.0000 C   0  0  0  0  0  0  0  0  0  0  0  0
   -0.3573    0.0000    0.0000 C   0  0  0  0  0  0  0  0  0  0  0  0
    0.3572    0.0000    0.0000 C   0  0  0  0  0  0  0  0  0  0  0  0
    0.3572    0.0000    0.0000 C   0  0  0  0  0  0  0  0  0  0  0  0
   -0.3573    0.0000    0.0000 C   0  0  0  0  0  0  0  0  0  0  0  0
    1.0717    0.0000    0.0000 C   0  0  0  0  0  0  0  0  0  0  0  0
    1.0717    0.0000    0.0000 O   0  0  0  0  0  0  0  0  0  0  0  0
    1.7860    0.0000    0.0000 N   0  0  0  0  0  0  0  0  0  0  0  0
    2.5005    0.0000    0.0000 C   0  0  0  0  0  0  0  0  0  0  0  0
    3.2150    0.0000    0.0000 C   0  0  0  0  0  0  0  0  0  0  0  0
    3.9295    0.0000    0.0000 C   0  0  0  0  0  0  0  0  0  0  0  0
    4.6439    0.0000    0.0000 C   0  0  0  0  0  0  0  0  0  0  0  0
    5.3583    0.0000    0.0000 O   0  5  0  0  0  0  0  0  0  0  0  0
    4.6439    0.0000    0.0000 O   0  0  0  0  0  0  0  0  0  0  0  0
    2.5005    0.0000    0.0000 C   0  0  0  0  0  0  0  0  0  0  0  0
    3.2150    0.0000    0.0000 O   0  5  0  0  0  0  0  0  0  0  0  0
    1.7860    0.0000    0.0000 O   0  0  0  0  0  0  0  0  0  0  0  0
   -3.2151    0.0000    0.0000 N   0  0  0  0  0  0  0  0  0  0  0  0
   -2.5006    0.0000    0.0000 C   0  0  0  0  0  0  0  0  0  0  0  0
   -2.5006    0.0000    0.0000 O   0  0  0  0  0  0  0  0  0  0  0  0
   -5.3584    0.0000    0.0000 N   0  0  0  0  0  0  0  0  0  0  0  0
  2  3  1  0      
  3  4  2  0      
  4  5  1  0      
  5  6  2  0      
  5  7  1  0      
  7  8  2  0      
  8  9  1  0      
  9 10  1  0      
 10 11  1  0      
 11 12  1  6      
 12 13  1  0      
 13 14  1  0      
 14 15  2  0      
 15 16  1  0      
 16 17  2  0      
 17 18  1  0      
 18 19  2  0      
 14 19  1  0      
 17 20  1  0      
 20 21  2  0      
 20 22  1  0      
 23 22  1  6      
 23 24  1  0      
 24 25  1  0      
 25 26  1  0      
 26 27  1  0      
 26 28  2  0      
 23 29  1  0      
 29 30  1  0      
 29 31  2  0      
 11 32  1  0      
  7 32  1  0      
 32 33  1  0      
 33 34  2  0      
  8 35  1  0      
  3 35  1  0      
M  CHG  3   1   2  27  -1  30  -1
M  END
>  <Bioactivity>
Calcium Levofolinate is a calcium salt of folinic acid that is an adjuvant used in cancer chemotherapy.

>  <CAS>
80433-71-2

>  <Col>
11

>  <Formula>
C20H21N7O7.Ca

>  <ID>
T6431

>  <Index>
850

>  <MOLENAME>
Calcium Levofolinate

>  <MolWt>
511.5

>  <Pathways>
Others

>  <Plate>
PLATE 011

>  <QR code>
1151480552

>  <Receptor>
Others

>  <Reference>
1.Lebitasy M, Hecq JD, Athanassopoulos A, Vanbeckbergen D, Jamart J, Galanti L.J Clin Pharm Ther. 2009 Aug;34(4):423-8.

>  <Row>
E

>  <SMILES>
[Ca++].NC1=NC(=O)C2=C(NC[C@H](CNC3=CC=C(C=C3)C(=O)N[C@@H](CCC([O-])=O)C([O-])=O)N2C=O)N1 |r,c:14,16,t:1,5,12|

>  <Target>
Others

>  <Weight>
10.3mg

$$$$
Lab-1.sdf
  ChemDraw05232018482D

  6  6  0  0  0  0  0  0  0  0999 V2000
   -0.7145    0.4125    0.0000 C   0  0  0  0  0  0  0  0  0  0  0  0
   -0.7145   -0.4125    0.0000 C   0  0  0  0  0  0  0  0  0  0  0  0
    0.0000   -0.8250    0.0000 C   0  0  0  0  0  0  0  0  0  0  0  0
    0.7145   -0.4125    0.0000 C   0  0  0  0  0  0  0  0  0  0  0  0
    0.7145    0.4125    0.0000 C   0  0  0  0  0  0  0  0  0  0  0  0
    0.0000    0.8250    0.0000 C   0  0  0  0  0  0  0  0  0  0  0  0
  1  2  2  0      
  2  3  1  0      
  3  4  2  0      
  4  5  1  0      
  5  6  2  0      
  6  1  1  0      
M  END
$$$$
